Program Version,EnergyPlus, Version 24.2.0-94a887817b, YMD=2025.04.10 17:22
! <Version>, Version ID
 Version, 24.2
! <Timesteps per Hour>, #TimeSteps, Minutes per TimeStep {minutes}
 Timesteps per Hour,  6, 10
! <System Convergence Limits>, Minimum System TimeStep {minutes}, Max HVAC Iterations, Minimum Plant Iterations, Maximum Plant Iterations
 System Convergence Limits, 1, 20, 2, 8
! <Simulation Control>, Do Zone Sizing, Do System Sizing, Do Plant Sizing, Do Design Days, Do Weather Simulation, Do HVAC Sizing Simulation
 Simulation Control, Yes, Yes, Yes, No, Yes, No
! <Performance Precision Tradeoffs>, Use Coil Direct Simulation, Zone Radiant Exchange Algorithm, Override Mode, Number of Timestep In Hour, Force Euler Method, Minimum Number of Warmup Days, Force Suppress All Begin Environment Resets, Minimum System Timestep, MaxZoneTempDiff, MaxAllowedDelTemp
 Performance Precision Tradeoffs, No, ScriptF, Normal, 6, No, 1, No, 1.0, 0.300, 2.0000E-003
! <Output Reporting Tolerances>, Tolerance for Time Heating Setpoint Not Met, Tolerance for Zone Cooling Setpoint Not Met Time
 Output Reporting Tolerances, 0.556, 0.556, 
! <Site:GroundTemperature:BuildingSurface>,Jan{C},Feb{C},Mar{C},Apr{C},May{C},Jun{C},Jul{C},Aug{C},Sep{C},Oct{C},Nov{C},Dec{C}
 Site:GroundTemperature:BuildingSurface,  18.00,  18.00,  18.00,  18.00,  18.00,  18.00,  18.00,  18.00,  18.00,  18.00,  18.00,  18.00
! <Site:GroundTemperature:FCfactorMethod>,Jan{C},Feb{C},Mar{C},Apr{C},May{C},Jun{C},Jul{C},Aug{C},Sep{C},Oct{C},Nov{C},Dec{C}
 Site:GroundTemperature:FCfactorMethod,  14.00,   7.30,   3.30,   1.20,  -0.20,   5.60,  10.90,  16.10,  21.70,  25.00,  24.80,  19.90
! <Site:GroundTemperature:Shallow>,Jan{C},Feb{C},Mar{C},Apr{C},May{C},Jun{C},Jul{C},Aug{C},Sep{C},Oct{C},Nov{C},Dec{C}
 Site:GroundTemperature:Shallow,  13.00,  13.00,  13.00,  13.00,  13.00,  13.00,  13.00,  13.00,  13.00,  13.00,  13.00,  13.00
! <Site:GroundTemperature:Deep>,Jan{C},Feb{C},Mar{C},Apr{C},May{C},Jun{C},Jul{C},Aug{C},Sep{C},Oct{C},Nov{C},Dec{C}
 Site:GroundTemperature:Deep,  16.00,  16.00,  16.00,  16.00,  16.00,  16.00,  16.00,  16.00,  16.00,  16.00,  16.00,  16.00
! <Site:GroundReflectance>,Jan{dimensionless},Feb{dimensionless},Mar{dimensionless},Apr{dimensionless},May{dimensionless},Jun{dimensionless},Jul{dimensionless},Aug{dimensionless},Sep{dimensionless},Oct{dimensionless},Nov{dimensionless},Dec{dimensionless}
 Site:GroundReflectance,  0.20,  0.20,  0.20,  0.20,  0.20,  0.20,  0.20,  0.20,  0.20,  0.20,  0.20,  0.20
! <Site:GroundReflectance:SnowModifier>, Normal, Daylighting {dimensionless}
 Site:GroundReflectance:SnowModifier,   1.000,   1.000
! <Site:GroundReflectance:Snow>,Jan{dimensionless},Feb{dimensionless},Mar{dimensionless},Apr{dimensionless},May{dimensionless},Jun{dimensionless},Jul{dimensionless},Aug{dimensionless},Sep{dimensionless},Oct{dimensionless},Nov{dimensionless},Dec{dimensionless}
 Site:GroundReflectance:Snow,  0.20,  0.20,  0.20,  0.20,  0.20,  0.20,  0.20,  0.20,  0.20,  0.20,  0.20,  0.20
! <Site:GroundReflectance:Snow:Daylighting>,Jan{dimensionless},Feb{dimensionless},Mar{dimensionless},Apr{dimensionless},May{dimensionless},Jun{dimensionless},Jul{dimensionless},Aug{dimensionless},Sep{dimensionless},Oct{dimensionless},Nov{dimensionless},Dec{dimensionless}
 Site:GroundReflectance:Snow:Daylighting,  0.20,  0.20,  0.20,  0.20,  0.20,  0.20,  0.20,  0.20,  0.20,  0.20,  0.20,  0.20
! <Environment:Weather Station>,Wind Sensor Height Above Ground {m},Wind Speed Profile Exponent {},Wind Speed Profile Boundary Layer Thickness {m},Air Temperature Sensor Height Above Ground {m},Wind Speed Modifier Coefficient-Internal,Temperature Modifier Coefficient-Internal
Environment:Weather Station,10.000,0.140,270.000,1.500,1.586,9.750E-003
! <Site:Location>, Location Name, Latitude {N+/S- Deg}, Longitude {E+/W- Deg},  Time Zone Number {GMT+/-}, Elevation {m},  Standard Pressure at Elevation {Pa}, Standard RhoAir at Elevation
Site:Location,New York J F Kennedy IntL Ar NY USA TMY3 WMO#=744860,40.65,-73.80,-5.00,5.00,101265,1.2036
! <Site Water Mains Temperature Information>,Calculation Method{},Water Mains Temperature Schedule Name{},Annual Average Outdoor Air Temperature{C},Maximum Difference In Monthly Average Outdoor Air Temperatures{deltaC},Fixed Default Water Mains Temperature{C}
Site Water Mains Temperature Information,Correlation,NA,12.47,25.20,NA
! <Building Information>, Building Name,North Axis {deg},Terrain,  Loads Convergence Tolerance Value,Temperature Convergence Tolerance Value,  Solar Distribution,Maximum Number of Warmup Days,Minimum Number of Warmup Days
 Building Information,HotelLarge,0.000,City,4.00000E-002,0.20000,FullInteriorAndExterior,25,6
! <Inside Convection Algorithm>, Algorithm {Simple | TARP | CeilingDiffuser | AdaptiveConvectionAlgorithm}
Inside Convection Algorithm,TARP
! <Outside Convection Algorithm>, Algorithm {SimpleCombined | TARP | MoWitt | DOE-2 | AdaptiveConvectionAlgorithm}
Outside Convection Algorithm,DOE-2
! <Sky Radiance Distribution>, Value {Anisotropic}
Sky Radiance Distribution,Anisotropic
! <Zone Air Solution Algorithm>, Algorithm {ThirdOrderBackwardDifference | AnalyticalSolution | EulerMethod}, Space Heat Balance Sizing, Space Heat Balance Simulation
 Zone Air Solution Algorithm, ThirdOrderBackwardDifference, No, No
! <Zone Air Carbon Dioxide Balance Simulation>, Simulation {Yes/No}, Carbon Dioxide Concentration
 Zone Air Carbon Dioxide Balance Simulation, No,N/A
! <Zone Air Generic Contaminant Balance Simulation>, Simulation {Yes/No}, Generic Contaminant Concentration
 Zone Air Generic Contaminant Balance Simulation, No,N/A
! <Zone Air Mass Flow Balance Simulation>, Enforce Mass Balance, Adjust Zone Mixing and Return {AdjustMixingOnly | AdjustReturnOnly | AdjustMixingThenReturn | AdjustReturnThenMixing | None}, Adjust Zone Infiltration {AddInfiltration | AdjustInfiltration | None}, Infiltration Zones {MixingSourceZonesOnly | AllZones}
 Zone Air Mass Flow Balance Simulation, No,N/A,N/A,N/A
! <HVACSystemRootFindingAlgorithm>, Value {RegulaFalsi | Bisection | BisectionThenRegulaFalsi | RegulaFalsiThenBisection}
 HVACSystemRootFindingAlgorithm, RegulaFalsi
! <Environment:Site Atmospheric Variation>,Wind Speed Profile Exponent {},Wind Speed Profile Boundary Layer Thickness {m},Air Temperature Gradient Coefficient {K/m}
Environment:Site Atmospheric Variation,0.330,460.000,6.500000E-003
! <Shadowing/Sun Position Calculations Annual Simulations>, Shading Calculation Method, Shading Calculation Update Frequency Method, Shading Calculation Update Frequency {days}, Maximum Figures in Shadow Overlap Calculations {}, Polygon Clipping Algorithm, Pixel Counting Resolution, Sky Diffuse Modeling Algorithm, Output External Shading Calculation Results, Disable Self-Shading Within Shading Zone Groups, Disable Self-Shading From Shading Zone Groups to Other Zones
Shadowing/Sun Position Calculations Annual Simulations,PolygonClipping,Periodic,7,15000,SutherlandHodgman,512,SimpleSkyDiffuseModeling,No,No,No
! <Surface Geometry>,Starting Corner,Vertex Input Direction,Coordinate System,Daylight Reference Point Coordinate System,Rectangular (Simple) Surface Coordinate System
 Surface Geometry,UpperLeftCorner,Counterclockwise,RelativeCoordinateSystem,RelativeCoordinateSystem,RelativeToZoneOrigin
! <Surface Heat Transfer Algorithm>, Value {CTF - ConductionTransferFunction | EMPD - MoisturePenetrationDepthConductionTransferFunction | CondFD - ConductionFiniteDifference | HAMT - CombinedHeatAndMoistureFiniteElement} - Description,Inside Surface Max Temperature Limit{C}, Surface Convection Coefficient Lower Limit {W/m2-K}, Surface Convection Coefficient Upper Limit {W/m2-K}
Surface Heat Transfer Algorithm, CTF - ConductionTransferFunction,200,0.10,1000.0
! <Shading Summary>, Number of Fixed Detached Shades, Number of Building Detached Shades, Number of Attached Shades
 Shading Summary,0,0,0
! <Zone Summary>, Number of Zones, Number of Zone Surfaces, Number of SubSurfaces
 Zone Summary,22,235,36
! <Zone Information>,Zone Name,North Axis {deg},Origin X-Coordinate {m},Origin Y-Coordinate {m},Origin Z-Coordinate {m},Centroid X-Coordinate {m},Centroid Y-Coordinate {m},Centroid Z-Coordinate {m},Type,Zone Multiplier,Zone List Multiplier,Minimum X {m},Maximum X {m},Minimum Y {m},Maximum Y {m},Minimum Z {m},Maximum Z {m},Ceiling Height {m},Volume {m3},Zone Inside Convection Algorithm {Simple-Detailed-CeilingDiffuser-TrombeWall},Zone Outside Convection Algorithm {Simple-Detailed-Tarp-MoWitt-DOE-2-BLAST}, Floor Area {m2},Exterior Gross Wall Area {m2},Exterior Net Wall Area {m2},Exterior Window Area {m2}, Number of Surfaces, Number of SubSurfaces, Number of Shading SubSurfaces,  Part of Total Building Area
 Zone Information, BASEMENT,0.0,0.00,0.00,0.00,41.45,11.51,-1.22,1,1,1,0.00,86.56,0.00,22.86,-2.44,0.00,2.44,4826.41,TARP,DOE-2,1978.83,0.00,0.00,0.00,13,0,0,Yes
 Zone Information, RETAIL_1_FLR_1,0.0,0.00,0.00,0.00,5.79,2.90,1.98,1,1,1,0.00,11.58,0.00,5.79,0.00,3.96,3.96,265.76,TARP,DOE-2,67.07,68.84,45.58,23.26,6,1,0,Yes
 Zone Information, RETAIL_2_FLR_1,0.0,0.00,0.00,0.00,5.79,9.14,1.98,1,1,1,0.00,11.58,5.79,12.50,0.00,3.96,3.96,307.76,TARP,DOE-2,77.67,26.57,24.62,0.00,6,1,0,Yes
 Zone Information, MECH_FLR_1,0.0,0.00,0.00,0.00,61.87,17.68,1.98,1,1,1,53.95,69.80,12.50,22.86,0.00,3.96,3.96,650.80,TARP,DOE-2,164.24,62.80,62.80,0.00,6,0,0,Yes
 Zone Information, STORAGE_FLR_1,0.0,0.00,0.00,0.00,74.37,17.68,1.98,1,1,1,69.80,78.94,12.50,22.86,0.00,3.96,3.96,375.47,TARP,DOE-2,94.76,36.23,28.80,0.00,6,1,0,Yes
 Zone Information, LAUNDRY_FLR_1,0.0,0.00,0.00,0.00,84.28,14.33,1.98,1,1,1,81.99,86.56,5.79,22.86,0.00,3.96,3.96,309.22,TARP,DOE-2,78.04,85.75,83.80,0.00,6,1,0,Yes
 Zone Information, CAFE_FLR_1,0.0,0.00,0.00,0.00,70.26,2.90,1.98,1,1,1,53.95,86.56,0.00,5.79,0.00,3.96,3.96,748.35,TARP,DOE-2,188.86,152.17,84.72,65.50,7,2,0,Yes
 Zone Information, LOBBY_FLR_1,0.0,0.00,0.00,0.00,38.29,12.45,1.98,1,1,1,0.00,81.99,0.00,22.86,0.00,3.96,3.96,5183.56,TARP,DOE-2,1308.19,434.79,345.80,85.08,18,3,0,Yes
 Zone Information, ROOM_1_FLR_3,0.0,0.00,0.00,0.00,2.29,10.06,8.53,1,4,1,0.00,4.57,5.79,14.33,7.01,10.06,3.05,118.94,TARP,DOE-2,39.02,39.95,26.77,13.18,6,2,0,Yes
 Zone Information, ROOM_2_FLR_3,0.0,0.00,0.00,0.00,2.29,18.59,8.53,1,4,1,0.00,4.57,14.33,22.86,7.01,10.06,3.05,118.93,TARP,DOE-2,39.02,39.95,26.76,13.18,6,2,0,Yes
 Zone Information, ROOM_3_MULT19_FLR_3,0.0,0.00,0.00,0.00,8.53,9.14,8.53,1,76,1,6.71,10.36,5.79,12.50,7.01,10.06,3.05,74.75,TARP,DOE-2,24.52,11.15,7.47,3.68,6,1,0,Yes
 Zone Information, ROOM_4_MULT19_FLR_3,0.0,0.00,0.00,0.00,12.19,19.51,8.53,1,76,1,10.36,14.02,16.15,22.86,7.01,10.06,3.05,74.77,TARP,DOE-2,24.53,11.15,7.47,3.68,6,1,0,Yes
 Zone Information, ROOM_5_FLR_3,0.0,0.00,0.00,0.00,84.28,10.06,8.53,1,4,1,81.99,86.56,5.79,14.33,7.01,10.06,3.05,118.94,TARP,DOE-2,39.02,39.95,26.77,13.18,6,2,0,Yes
 Zone Information, ROOM_6_FLR_3,0.0,0.00,0.00,0.00,84.28,18.59,8.53,1,4,1,81.99,86.56,14.33,22.86,7.01,10.06,3.05,118.93,TARP,DOE-2,39.02,39.95,26.76,13.18,6,2,0,Yes
 Zone Information, CORRIDOR_FLR_3,0.0,0.00,0.00,0.00,43.28,14.33,8.53,1,4,1,4.57,81.99,5.79,22.86,7.01,10.06,3.05,1186.91,TARP,DOE-2,389.40,48.31,32.37,15.94,20,4,0,Yes
 Zone Information, ROOM_1_FLR_6,0.0,0.00,0.00,0.00,2.29,10.06,17.68,1,1,1,0.00,4.57,5.79,14.33,16.15,19.20,3.05,118.94,TARP,DOE-2,39.02,39.95,26.77,13.18,6,2,0,Yes
 Zone Information, ROOM_2_FLR_6,0.0,0.00,0.00,0.00,2.29,18.59,17.68,1,1,1,0.00,4.57,14.33,22.86,16.15,19.20,3.05,118.93,TARP,DOE-2,39.02,39.95,26.76,13.18,6,2,0,Yes
 Zone Information, ROOM_3_MULT9_FLR_6,0.0,0.00,0.00,0.00,7.93,7.62,17.68,1,9,1,4.57,11.28,5.79,9.45,16.15,19.20,3.05,74.77,TARP,DOE-2,24.53,20.44,13.70,6.74,6,1,0,Yes
 Zone Information, BANQUET_FLR_6,0.0,0.00,0.00,0.00,26.37,17.68,17.68,1,1,1,10.36,42.37,12.50,22.86,16.15,19.20,3.05,1010.89,TARP,DOE-2,331.66,97.55,65.36,32.19,6,1,0,Yes
 Zone Information, DINING_FLR_6,0.0,0.00,0.00,0.00,63.55,17.68,17.68,1,1,1,47.55,79.55,12.50,22.86,16.15,19.20,3.05,1010.89,TARP,DOE-2,331.66,97.55,65.36,32.19,6,1,0,Yes
 Zone Information, KITCHEN_FLR_6,0.0,0.00,0.00,0.00,82.99,14.11,17.68,1,1,1,79.55,86.56,5.79,22.86,16.15,19.20,3.05,314.87,TARP,DOE-2,103.30,87.33,60.96,26.37,8,3,0,Yes
 Zone Information, CORRIDOR_FLR_6,0.0,0.00,0.00,0.00,41.51,13.35,17.68,1,1,1,4.57,81.99,5.79,22.86,16.15,19.20,3.05,1256.16,TARP,DOE-2,412.12,85.47,57.27,28.20,15,3,0,Yes
! <Zone Internal Gains Nominal>,Zone Name, Floor Area {m2},# Occupants,Area per Occupant {m2/person},Occupant per Area {person/m2},Interior Lighting {W/m2},Electric Load {W/m2},Gas Load {W/m2},Other Load {W/m2},Hot Water Eq {W/m2},Steam Equipment {W/m2},Sum Loads per Area {W/m2},Outdoor Controlled Baseboard Heat
 Zone Internal Gains Nominal, BASEMENT,1978.83,106.5,18.581,5.382E-002,5.877,5.380,0.000,0.000,0.000,0.000,11.257,No
 Zone Internal Gains Nominal, RETAIL_1_FLR_1,67.07,10.8,6.194,0.161,7.158,10.760,0.000,0.000,0.000,0.000,17.918,No
 Zone Internal Gains Nominal, RETAIL_2_FLR_1,77.67,12.5,6.194,0.161,7.158,10.760,0.000,0.000,0.000,0.000,17.918,No
 Zone Internal Gains Nominal, MECH_FLR_1,164.24,2.7,61.932,1.615E-002,6.878,5.380,0.000,0.000,0.000,0.000,12.258,No
 Zone Internal Gains Nominal, STORAGE_FLR_1,94.76,2.0,46.451,2.153E-002,3.581,2.690,0.000,0.000,0.000,0.000,6.271,No
 Zone Internal Gains Nominal, LAUNDRY_FLR_1,78.04,8.4,9.290,0.108,4.941,61.680,535.850,0.000,0.000,0.000,602.471,No
 Zone Internal Gains Nominal, CAFE_FLR_1,188.86,142.3,1.327,0.753,7.363,5.380,0.000,0.000,0.000,0.000,12.743,No
 Zone Internal Gains Nominal, LOBBY_FLR_1,1308.19,422.4,3.097,0.323,7.750,8.070,0.000,0.000,0.000,0.000,15.820,No
 Zone Internal Gains Nominal, ROOM_1_FLR_3,39.02,1.5,26.015,3.844E-002,4.413,6.750,0.000,0.000,0.000,0.000,11.163,No
 Zone Internal Gains Nominal, ROOM_2_FLR_3,39.02,1.5,26.012,3.844E-002,4.413,6.750,0.000,0.000,0.000,0.000,11.163,No
 Zone Internal Gains Nominal, ROOM_3_MULT19_FLR_3,24.52,1.5,16.349,6.116E-002,4.413,10.520,0.000,0.000,0.000,0.000,14.933,No
 Zone Internal Gains Nominal, ROOM_4_MULT19_FLR_3,24.53,1.5,16.354,6.115E-002,4.413,10.520,0.000,0.000,0.000,0.000,14.933,No
 Zone Internal Gains Nominal, ROOM_5_FLR_3,39.02,1.5,26.015,3.844E-002,4.413,6.750,0.000,0.000,0.000,0.000,11.163,No
 Zone Internal Gains Nominal, ROOM_6_FLR_3,39.02,1.5,26.012,3.844E-002,4.413,6.750,0.000,0.000,0.000,0.000,11.163,No
 Zone Internal Gains Nominal, CORRIDOR_FLR_3,389.40,21.0,18.581,5.382E-002,4.263,0.000,0.000,0.000,0.000,0.000,4.263,No
 Zone Internal Gains Nominal, ROOM_1_FLR_6,39.02,1.5,26.015,3.844E-002,4.413,6.750,0.000,0.000,0.000,0.000,11.163,No
 Zone Internal Gains Nominal, ROOM_2_FLR_6,39.02,1.5,26.012,3.844E-002,4.413,6.750,0.000,0.000,0.000,0.000,11.163,No
 Zone Internal Gains Nominal, ROOM_3_MULT9_FLR_6,24.53,1.5,16.354,6.115E-002,4.413,10.520,0.000,0.000,0.000,0.000,14.933,No
 Zone Internal Gains Nominal, BANQUET_FLR_6,331.66,249.9,1.327,0.753,7.363,67.820,0.000,0.000,0.000,0.000,75.183,No
 Zone Internal Gains Nominal, DINING_FLR_6,331.66,249.9,1.327,0.753,7.363,67.820,0.000,0.000,0.000,0.000,75.183,No
 Zone Internal Gains Nominal, KITCHEN_FLR_6,103.30,22.2,4.645,0.215,11.528,512.243,2419.260,0.000,0.000,0.000,2943.031,No
 Zone Internal Gains Nominal, CORRIDOR_FLR_6,412.12,22.2,18.581,5.382E-002,4.263,0.000,0.000,0.000,0.000,0.000,4.263,No
! <People Internal Gains Nominal>,Name,Schedule Name,Zone Name,Zone Floor Area {m2},# Zone Occupants,Number of People {},People/Floor Area {person/m2},Floor Area per person {m2/person},Fraction Radiant,Fraction Convected,Sensible Fraction Calculation,Activity level,ASHRAE 55 Warnings,Carbon Dioxide Generation Rate,Minimum Number of People for All Day Types,Maximum Number of People for All Day Types,Minimum Number of People for Weekdays, Maximum Number of People for Weekdays, Minimum Number of People for Weekends/Holidays, Maximum Number of People for Weekends /Holidays,Minimum Number of People for Summer Design Days, Maximum Number of People for Summer Design Days,Minimum Number of People for Winter Design Days, Maximum Number of People for Winter Design Days,MRT Calculation Type,Work Efficiency, Clothing Insulation Calculation Method,Clothing Insulation Calculation Method Schedule,Clothing,Air Velocity,Fanger Calculation,Pierce Calculation,KSU Calculation,Cooling Effect Calculation,Ankle Draft Calculation
 People Internal Gains Nominal, BASEMENT PEOPLE,BLDG_OCC_SCH,BASEMENT,1978.83,106.5,106.5,5.382E-002,18.581,0.300,0.700,AutoCalculate,ACTIVITY_SCH,No,3.8200E-008,0.0,106.5,21.3,95.8,21.3,95.8,106.5,106.5,0.0,0.0,Zone Averaged,WORK_EFF_SCH,Clothing Insulation Schedule,N/A,CLOTHING_SCH,AIR_VELO_SCH,Yes,No,No,No,No
 People Internal Gains Nominal, RETAIL_1_FLR_1 PEOPLE,BLDG_OCC_SCH,RETAIL_1_FLR_1,67.07,10.8,10.8,0.161,6.194,0.300,0.700,AutoCalculate,ACTIVITY_SCH,No,3.8200E-008,0.0,10.8,2.2,9.7,2.2,9.7,10.8,10.8,0.0,0.0,Zone Averaged,WORK_EFF_SCH,Clothing Insulation Schedule,N/A,CLOTHING_SCH,AIR_VELO_SCH,Yes,No,No,No,No
 People Internal Gains Nominal, RETAIL_2_FLR_1 PEOPLE,BLDG_OCC_SCH,RETAIL_2_FLR_1,77.67,12.5,12.5,0.161,6.194,0.300,0.700,AutoCalculate,ACTIVITY_SCH,No,3.8200E-008,0.0,12.5,2.5,11.3,2.5,11.3,12.5,12.5,0.0,0.0,Zone Averaged,WORK_EFF_SCH,Clothing Insulation Schedule,N/A,CLOTHING_SCH,AIR_VELO_SCH,Yes,No,No,No,No
 People Internal Gains Nominal, LAUNDRY_FLR_1 PEOPLE,BLDG_OCC_SCH,LAUNDRY_FLR_1,78.04,8.4,8.4,0.108,9.290,0.300,0.700,AutoCalculate,ACTIVITY_SCH,No,3.8200E-008,0.0,8.4,1.7,7.6,1.7,7.6,8.4,8.4,0.0,0.0,Zone Averaged,WORK_EFF_SCH,Clothing Insulation Schedule,N/A,CLOTHING_SCH,AIR_VELO_SCH,Yes,No,No,No,No
 People Internal Gains Nominal, CAFE_FLR_1 PEOPLE,BLDG_OCC_SCH,CAFE_FLR_1,188.86,142.3,142.3,0.753,1.327,0.300,0.700,AutoCalculate,ACTIVITY_SCH,No,3.8200E-008,0.0,142.3,28.5,128.1,28.5,128.1,142.3,142.3,0.0,0.0,Zone Averaged,WORK_EFF_SCH,Clothing Insulation Schedule,N/A,CLOTHING_SCH,AIR_VELO_SCH,Yes,No,No,No,No
 People Internal Gains Nominal, LOBBY_FLR_1 PEOPLE,BLDG_OCC_SCH,LOBBY_FLR_1,1308.19,422.4,422.4,0.323,3.097,0.300,0.700,AutoCalculate,ACTIVITY_SCH,No,3.8200E-008,0.0,422.4,84.5,380.2,84.5,380.2,422.4,422.4,0.0,0.0,Zone Averaged,WORK_EFF_SCH,Clothing Insulation Schedule,N/A,CLOTHING_SCH,AIR_VELO_SCH,Yes,No,No,No,No
 People Internal Gains Nominal, ROOM_1_FLR_3 PEOPLE,GUESTROOM_OCC_SCH,ROOM_1_FLR_3,39.02,1.5,1.5,3.844E-002,26.015,0.300,0.700,AutoCalculate,ACTIVITY_SCH,No,3.8200E-008,0.0,1.5,0.3,1.5,0.5,1.5,1.5,1.5,0.0,0.0,Zone Averaged,WORK_EFF_SCH,Clothing Insulation Schedule,N/A,CLOTHING_SCH,AIR_VELO_SCH,Yes,No,No,No,No
 People Internal Gains Nominal, ROOM_2_FLR_3 PEOPLE,GUESTROOM_OCC_SCH,ROOM_2_FLR_3,39.02,1.5,1.5,3.844E-002,26.012,0.300,0.700,AutoCalculate,ACTIVITY_SCH,No,3.8200E-008,0.0,1.5,0.3,1.5,0.5,1.5,1.5,1.5,0.0,0.0,Zone Averaged,WORK_EFF_SCH,Clothing Insulation Schedule,N/A,CLOTHING_SCH,AIR_VELO_SCH,Yes,No,No,No,No
 People Internal Gains Nominal, ROOM_3_MULT19_FLR_3 PEOPLE,ALWAYS_OFF,ROOM_3_MULT19_FLR_3,24.52,1.5,1.5,6.116E-002,16.349,0.300,0.700,AutoCalculate,ACTIVITY_SCH,No,3.8200E-008,0.0,0.0,0.0,0.0,0.0,0.0,0.0,0.0,0.0,0.0,Zone Averaged,WORK_EFF_SCH,Clothing Insulation Schedule,N/A,CLOTHING_SCH,AIR_VELO_SCH,Yes,No,No,No,No
 People Internal Gains Nominal, ROOM_4_MULT19_FLR_3 PEOPLE,GUESTROOM_OCC_SCH,ROOM_4_MULT19_FLR_3,24.53,1.5,1.5,6.115E-002,16.354,0.300,0.700,AutoCalculate,ACTIVITY_SCH,No,3.8200E-008,0.0,1.5,0.3,1.5,0.5,1.5,1.5,1.5,0.0,0.0,Zone Averaged,WORK_EFF_SCH,Clothing Insulation Schedule,N/A,CLOTHING_SCH,AIR_VELO_SCH,Yes,No,No,No,No
 People Internal Gains Nominal, ROOM_5_FLR_3 PEOPLE,GUESTROOM_OCC_SCH,ROOM_5_FLR_3,39.02,1.5,1.5,3.844E-002,26.015,0.300,0.700,AutoCalculate,ACTIVITY_SCH,No,3.8200E-008,0.0,1.5,0.3,1.5,0.5,1.5,1.5,1.5,0.0,0.0,Zone Averaged,WORK_EFF_SCH,Clothing Insulation Schedule,N/A,CLOTHING_SCH,AIR_VELO_SCH,Yes,No,No,No,No
 People Internal Gains Nominal, ROOM_6_FLR_3 PEOPLE,GUESTROOM_OCC_SCH,ROOM_6_FLR_3,39.02,1.5,1.5,3.844E-002,26.012,0.300,0.700,AutoCalculate,ACTIVITY_SCH,No,3.8200E-008,0.0,1.5,0.3,1.5,0.5,1.5,1.5,1.5,0.0,0.0,Zone Averaged,WORK_EFF_SCH,Clothing Insulation Schedule,N/A,CLOTHING_SCH,AIR_VELO_SCH,Yes,No,No,No,No
 People Internal Gains Nominal, ROOM_1_FLR_6 PEOPLE,GUESTROOM_OCC_SCH,ROOM_1_FLR_6,39.02,1.5,1.5,3.844E-002,26.015,0.300,0.700,AutoCalculate,ACTIVITY_SCH,No,3.8200E-008,0.0,1.5,0.3,1.5,0.5,1.5,1.5,1.5,0.0,0.0,Zone Averaged,WORK_EFF_SCH,Clothing Insulation Schedule,N/A,CLOTHING_SCH,AIR_VELO_SCH,Yes,No,No,No,No
 People Internal Gains Nominal, ROOM_2_FLR_6 PEOPLE,GUESTROOM_OCC_SCH,ROOM_2_FLR_6,39.02,1.5,1.5,3.844E-002,26.012,0.300,0.700,AutoCalculate,ACTIVITY_SCH,No,3.8200E-008,0.0,1.5,0.3,1.5,0.5,1.5,1.5,1.5,0.0,0.0,Zone Averaged,WORK_EFF_SCH,Clothing Insulation Schedule,N/A,CLOTHING_SCH,AIR_VELO_SCH,Yes,No,No,No,No
 People Internal Gains Nominal, ROOM_3_MULT9_FLR_6 PEOPLE,GUESTROOM_OCC_SCH,ROOM_3_MULT9_FLR_6,24.53,1.5,1.5,6.115E-002,16.354,0.300,0.700,AutoCalculate,ACTIVITY_SCH,No,3.8200E-008,0.0,1.5,0.3,1.5,0.5,1.5,1.5,1.5,0.0,0.0,Zone Averaged,WORK_EFF_SCH,Clothing Insulation Schedule,N/A,CLOTHING_SCH,AIR_VELO_SCH,Yes,No,No,No,No
 People Internal Gains Nominal, BANQUET_FLR_6 PEOPLE,BLDG_OCC_SCH,BANQUET_FLR_6,331.66,249.9,249.9,0.753,1.327,0.300,0.700,AutoCalculate,ACTIVITY_SCH,No,3.8200E-008,0.0,249.9,50.0,224.9,50.0,224.9,249.9,249.9,0.0,0.0,Zone Averaged,WORK_EFF_SCH,Clothing Insulation Schedule,N/A,CLOTHING_SCH,AIR_VELO_SCH,Yes,No,No,No,No
 People Internal Gains Nominal, DINING_FLR_6 PEOPLE,BLDG_OCC_SCH,DINING_FLR_6,331.66,249.9,249.9,0.753,1.327,0.300,0.700,AutoCalculate,ACTIVITY_SCH,No,3.8200E-008,0.0,249.9,50.0,224.9,50.0,224.9,249.9,249.9,0.0,0.0,Zone Averaged,WORK_EFF_SCH,Clothing Insulation Schedule,N/A,CLOTHING_SCH,AIR_VELO_SCH,Yes,No,No,No,No
 People Internal Gains Nominal, KITCHEN_FLR_6 PEOPLE,BLDG_OCC_SCH,KITCHEN_FLR_6,103.30,22.2,22.2,0.215,4.645,0.300,0.700,AutoCalculate,ACTIVITY_SCH,No,3.8200E-008,0.0,22.2,4.4,20.0,4.4,20.0,22.2,22.2,0.0,0.0,Zone Averaged,WORK_EFF_SCH,Clothing Insulation Schedule,N/A,CLOTHING_SCH,AIR_VELO_SCH,Yes,No,No,No,No
 People Internal Gains Nominal, STORAGE_FLR_1 PEOPLE,BLDG_OCC_SCH,STORAGE_FLR_1,94.76,2.0,2.0,2.153E-002,46.451,0.300,0.700,AutoCalculate,ACTIVITY_SCH,No,3.8200E-008,0.0,2.0,0.4,1.8,0.4,1.8,2.0,2.0,0.0,0.0,Zone Averaged,WORK_EFF_SCH,Clothing Insulation Schedule,N/A,CLOTHING_SCH,AIR_VELO_SCH,Yes,No,No,No,No
 People Internal Gains Nominal, CORRIDOR_FLR_3 PEOPLE,BLDG_OCC_SCH,CORRIDOR_FLR_3,389.40,21.0,21.0,5.382E-002,18.581,0.300,0.700,AutoCalculate,ACTIVITY_SCH,No,3.8200E-008,0.0,21.0,4.2,18.9,4.2,18.9,21.0,21.0,0.0,0.0,Zone Averaged,WORK_EFF_SCH,Clothing Insulation Schedule,N/A,CLOTHING_SCH,AIR_VELO_SCH,Yes,No,No,No,No
 People Internal Gains Nominal, CORRIDOR_FLR_6 PEOPLE,BLDG_OCC_SCH,CORRIDOR_FLR_6,412.12,22.2,22.2,5.382E-002,18.581,0.300,0.700,AutoCalculate,ACTIVITY_SCH,No,3.8200E-008,0.0,22.2,4.4,20.0,4.4,20.0,22.2,22.2,0.0,0.0,Zone Averaged,WORK_EFF_SCH,Clothing Insulation Schedule,N/A,CLOTHING_SCH,AIR_VELO_SCH,Yes,No,No,No,No
 People Internal Gains Nominal, MECH_FLR_1 PEOPLE,BLDG_OCC_SCH,MECH_FLR_1,164.24,2.7,2.7,1.615E-002,61.932,0.300,0.700,AutoCalculate,ACTIVITY_SCH,No,3.8200E-008,0.0,2.7,0.5,2.4,0.5,2.4,2.7,2.7,0.0,0.0,Zone Averaged,WORK_EFF_SCH,Clothing Insulation Schedule,N/A,CLOTHING_SCH,AIR_VELO_SCH,Yes,No,No,No,No
! <Lights Internal Gains Nominal>,Name,Schedule Name,Zone Name,Zone Floor Area {m2},# Zone Occupants,Lighting Level {W},Lights/Floor Area {W/m2},Lights per person {W/person},Fraction Return Air,Fraction Radiant,Fraction Short Wave,Fraction Convected,Fraction Replaceable,End-Use, Minimum Lighting Level for All Day Types {W},Maximum Lighting Level for All Day Types {W},Minimum Lighting Level for Weekdays {W}, Maximum Lighting Level for Weekdays {W},Minimum Lighting Level for Weekends/Holidays {W}, Maximum Lighting Level for Weekends /Holidays {W},Minimum Lighting Level for Summer Design Days {W}, Maximum Lighting Level for Summer Design Days {W},Minimum Lighting Level for Winter Design Days {W}, Maximum Lighting Level for Winter Design Days {W}
 Lights Internal Gains Nominal, BASEMENT_LIGHTS,LTG_SCH_BASEMENT,BASEMENT,1978.83,106.5,11630.030,5.877,109.203,0.000,0.700,0.200,0.100,1.000,LightsWired,0.000,11630.030,795.939,7163.6,795.939,6367.623,11630.030,11630.030,0.000,0.000
 Lights Internal Gains Nominal, RETAIL_1_FLR_1_LIGHTS,LTG_SCH_RETAIL,RETAIL_1_FLR_1,67.07,10.8,480.097,7.158,44.334,0.000,0.700,0.200,0.100,1.000,LightsWired,0.000,480.097,36.021,324.2,36.021,288.165,480.097,480.097,0.000,0.000
 Lights Internal Gains Nominal, RETAIL_2_FLR_1_LIGHTS,LTG_SCH_RETAIL,RETAIL_2_FLR_1,77.67,12.5,555.954,7.158,44.334,0.000,0.700,0.200,0.100,1.000,LightsWired,0.000,555.954,41.712,375.4,41.712,333.696,555.954,555.954,0.000,0.000
 Lights Internal Gains Nominal, MECH_FLR_1_LIGHTS,LTG_SCH_MECHANIC,MECH_FLR_1,164.24,2.7,1129.686,6.878,425.975,0.000,0.700,0.200,0.100,1.000,LightsWired,0.000,1129.686,74.630,671.7,74.630,597.039,1129.686,1129.686,0.000,0.000
 Lights Internal Gains Nominal, STORAGE_FLR_1_LIGHTS,LTG_SCH_STORAGE,STORAGE_FLR_1,94.76,2.0,339.286,3.581,166.317,0.000,0.700,0.200,0.100,1.000,LightsWired,0.000,339.286,17.108,154.0,17.108,136.854,339.286,339.286,0.000,0.000
 Lights Internal Gains Nominal, LAUNDRY_FLR_1_LIGHTS,LTG_SCH_LAUNDRY,LAUNDRY_FLR_1,78.04,8.4,385.564,4.941,45.901,0.000,0.700,0.200,0.100,1.000,LightsWired,0.000,385.564,31.839,286.6,31.839,254.713,385.564,385.564,0.000,0.000
 Lights Internal Gains Nominal, CAFE_FLR_1_LIGHTS,LTG_SCH_DINING,CAFE_FLR_1,188.86,142.3,1390.496,7.363,9.772,0.000,0.700,0.200,0.100,1.000,LightsWired,0.000,1390.496,85.298,767.7,85.298,682.386,1390.496,1390.496,0.000,0.000
 Lights Internal Gains Nominal, LOBBY_FLR_1_LIGHTS,LTG_SCH_LOBBY,LOBBY_FLR_1,1308.19,422.4,10138.453,7.750,24.000,0.000,0.700,0.200,0.100,1.000,LightsWired,0.000,10138.453,717.612,6458.5,717.612,5740.899,10138.453,10138.453,0.000,0.000
 Lights Internal Gains Nominal, ROOM_1_FLR_3_LIGHTS,LTG_SCH_GUESTROOM,ROOM_1_FLR_3,39.02,1.5,172.212,4.413,114.808,0.000,0.700,0.200,0.100,1.000,LightsWired,0.000,172.212,10.419,94.7,10.419,94.717,172.212,172.212,0.000,0.000
 Lights Internal Gains Nominal, ROOM_2_FLR_3_LIGHTS,LTG_SCH_GUESTROOM,ROOM_2_FLR_3,39.02,1.5,172.192,4.413,114.795,0.000,0.700,0.200,0.100,1.000,LightsWired,0.000,172.192,10.418,94.7,10.418,94.705,172.192,172.192,0.000,0.000
 Lights Internal Gains Nominal, ROOM_3_MULT19_FLR_3_LIGHTS,LTG_SCH_GUESTROOM,ROOM_3_MULT19_FLR_3,24.52,1.5,108.229,4.413,72.152,0.000,0.700,0.200,0.100,1.000,LightsWired,0.000,108.229,6.548,59.5,6.548,59.526,108.229,108.229,0.000,0.000
 Lights Internal Gains Nominal, ROOM_4_MULT19_FLR_3_LIGHTS,LTG_SCH_GUESTROOM,ROOM_4_MULT19_FLR_3,24.53,1.5,108.258,4.413,72.172,0.000,0.700,0.200,0.100,1.000,LightsWired,0.000,108.258,6.550,59.5,6.550,59.542,108.258,108.258,0.000,0.000
 Lights Internal Gains Nominal, ROOM_5_FLR_3_LIGHTS,LTG_SCH_GUESTROOM,ROOM_5_FLR_3,39.02,1.5,172.212,4.413,114.808,0.000,0.700,0.200,0.100,1.000,LightsWired,0.000,172.212,10.419,94.7,10.419,94.717,172.212,172.212,0.000,0.000
 Lights Internal Gains Nominal, ROOM_6_FLR_3_LIGHTS,LTG_SCH_GUESTROOM,ROOM_6_FLR_3,39.02,1.5,172.192,4.413,114.795,0.000,0.700,0.200,0.100,1.000,LightsWired,0.000,172.192,10.418,94.7,10.418,94.705,172.192,172.192,0.000,0.000
 Lights Internal Gains Nominal, CORRIDOR_FLR_3_LIGHTS,LTG_SCH_CORRIDOR,CORRIDOR_FLR_3,389.40,21.0,1659.841,4.263,79.202,0.000,0.700,0.200,0.100,1.000,LightsWired,0.000,1659.841,117.486,1057.4,117.486,939.885,1659.841,1659.841,0.000,0.000
 Lights Internal Gains Nominal, ROOM_1_FLR_6_LIGHTS,LTG_SCH_GUESTROOM,ROOM_1_FLR_6,39.02,1.5,172.212,4.413,114.808,0.000,0.700,0.200,0.100,1.000,LightsWired,0.000,172.212,10.419,94.7,10.419,94.717,172.212,172.212,0.000,0.000
 Lights Internal Gains Nominal, ROOM_2_FLR_6_LIGHTS,LTG_SCH_GUESTROOM,ROOM_2_FLR_6,39.02,1.5,172.192,4.413,114.795,0.000,0.700,0.200,0.100,1.000,LightsWired,0.000,172.192,10.418,94.7,10.418,94.705,172.192,172.192,0.000,0.000
 Lights Internal Gains Nominal, ROOM_3_MULT9_FLR_6_LIGHTS,LTG_SCH_GUESTROOM,ROOM_3_MULT9_FLR_6,24.53,1.5,108.258,4.413,72.172,0.000,0.700,0.200,0.100,1.000,LightsWired,0.000,108.258,6.550,59.5,6.550,59.542,108.258,108.258,0.000,0.000
 Lights Internal Gains Nominal, BANQUET_FLR_6_LIGHTS,LTG_SCH_DINING,BANQUET_FLR_6,331.66,249.9,2441.829,7.363,9.771,0.000,0.700,0.200,0.100,1.000,LightsWired,0.000,2441.829,149.791,1348.1,149.791,1198.328,2441.829,2441.829,0.000,0.000
 Lights Internal Gains Nominal, DINING_FLR_6_LIGHTS,LTG_SCH_DINING,DINING_FLR_6,331.66,249.9,2441.829,7.363,9.771,0.000,0.700,0.200,0.100,1.000,LightsWired,0.000,2441.829,149.791,1348.1,149.791,1198.328,2441.829,2441.829,0.000,0.000
 Lights Internal Gains Nominal, KITCHEN_FLR_6_LIGHTS,LTG_SCH_KITCHEN,KITCHEN_FLR_6,103.30,22.2,1190.908,11.528,53.553,0.000,0.700,0.200,0.100,1.000,LightsWired,0.000,1190.908,78.674,708.1,78.674,629.395,1190.908,1190.908,0.000,0.000
 Lights Internal Gains Nominal, CORRIDOR_FLR_6_LIGHTS,LTG_SCH_CORRIDOR,CORRIDOR_FLR_6,412.12,22.2,1756.685,4.263,79.201,0.000,0.700,0.200,0.100,1.000,LightsWired,0.000,1756.685,124.340,1119.1,124.340,994.723,1756.685,1756.685,0.000,0.000
! <ElectricEquipment Internal Gains Nominal>,Name,Schedule Name,Zone Name,Zone Floor Area {m2},# Zone Occupants,Equipment Level {W},Equipment/Floor Area {W/m2},Equipment per person {W/person},Fraction Latent,Fraction Radiant,Fraction Lost,Fraction Convected,End-Use SubCategory,Minimum Equipment Level for All Day Types {W},Maximum Equipment Level for All Day Types {W},Minimum Equipment Level for Weekdays {W}, Maximum Equipment Level for Weekdays {W},Minimum Equipment Level for Weekends/Holidays {W}, Maximum Equipment Level for Weekends /Holidays {W},Minimum Equipment Level for Summer Design Days {W}, Maximum Equipment Level for Summer Design Days {W},Minimum Equipment Level for Winter Design Days {W}, Maximum Equipment Level for Winter Design Days {W}
 ElectricEquipment Internal Gains Nominal, BASEMENT_MISCPLUG_EQUIP,BASEMENT_EQUIP_SCH,BASEMENT,1978.83,106.5,10646.106,5.380,99.964,0.000,0.500,0.000,0.500,MiscPlug,0.000,10646.106,2027.901,9632.529,2027.901,9125.554,10646.106,10646.106,0.000,0.000
 ElectricEquipment Internal Gains Nominal, RETAIL_1_FLR_1_MISCPLUG_EQUIP,BLDG_EQUIP_SCH,RETAIL_1_FLR_1,67.07,10.8,721.688,10.760,66.644,0.000,0.500,0.000,0.500,MiscPlug,0.000,721.688,144.338,685.604,144.338,649.519,721.688,721.688,0.000,0.000
 ElectricEquipment Internal Gains Nominal, RETAIL_2_FLR_1_MISCPLUG_EQUIP,BLDG_EQUIP_SCH,RETAIL_2_FLR_1,77.67,12.5,835.717,10.760,66.644,0.000,0.500,0.000,0.500,MiscPlug,0.000,835.717,167.143,793.931,167.143,752.146,835.717,835.717,0.000,0.000
 ElectricEquipment Internal Gains Nominal, MECH_FLR_1_MISCPLUG_EQUIP,BLDG_EQUIP_SCH,MECH_FLR_1,164.24,2.7,883.628,5.380,333.193,0.000,0.500,0.000,0.500,MiscPlug,0.000,883.628,176.726,839.447,176.726,795.265,883.628,883.628,0.000,0.000
 ElectricEquipment Internal Gains Nominal, STORAGE_FLR_1_MISCPLUG_EQUIP,BLDG_EQUIP_SCH,STORAGE_FLR_1,94.76,2.0,254.902,2.690,124.952,0.000,0.500,0.000,0.500,MiscPlug,0.000,254.902,50.980,242.157,50.980,229.412,254.902,254.902,0.000,0.000
 ElectricEquipment Internal Gains Nominal, LAUNDRY_FLR_1_MISCPLUG_EQUIP,BLDG_EQUIP_SCH,LAUNDRY_FLR_1,78.04,8.4,4813.474,61.680,573.033,0.000,0.500,0.000,0.500,MiscPlug,0.000,4813.474,962.695,4572.801,962.695,4332.127,4813.474,4813.474,0.000,0.000
 ElectricEquipment Internal Gains Nominal, CAFE_FLR_1_MISCPLUG_EQUIP,BLDG_EQUIP_SCH,CAFE_FLR_1,188.86,142.3,1016.077,5.380,7.140,0.000,0.500,0.000,0.500,MiscPlug,0.000,1016.077,203.215,965.273,203.215,914.469,1016.077,1016.077,0.000,0.000
 ElectricEquipment Internal Gains Nominal, LOBBY_FLR_1_MISCPLUG_EQUIP,BLDG_EQUIP_SCH,LOBBY_FLR_1,1308.19,422.4,10557.062,8.070,24.991,0.000,0.500,0.000,0.500,MiscPlug,0.000,10557.062,2111.412,10029.209,2111.412,9501.356,10557.062,10557.062,0.000,0.000
 ElectricEquipment Internal Gains Nominal, ROOM_1_FLR_3_PLUGMISC_EQUIP,GUESTROOM_EQP_SCH_ADVA,ROOM_1_FLR_3,39.02,1.5,263.399,6.750,175.599,0.000,0.500,0.000,0.500,MiscPlug,0.000,263.399,31.608,237.059,34.242,237.059,263.399,263.399,0.000,0.000
 ElectricEquipment Internal Gains Nominal, ROOM_2_FLR_3_PLUGMISC_EQUIP,GUESTROOM_EQP_SCH_ADVA,ROOM_2_FLR_3,39.02,1.5,263.368,6.750,175.579,0.000,0.500,0.000,0.500,MiscPlug,0.000,263.368,31.604,237.031,34.238,237.031,263.368,263.368,0.000,0.000
 ElectricEquipment Internal Gains Nominal, ROOM_3_MULT19_FLR_3_PLUGMISC_EQUIP,GUESTROOM_EQP_SCH_ADVA,ROOM_3_MULT19_FLR_3,24.52,1.5,257.991,10.520,171.994,0.000,0.500,0.000,0.500,MiscPlug,0.000,257.991,30.959,232.192,33.539,232.192,257.991,257.991,0.000,0.000
 ElectricEquipment Internal Gains Nominal, ROOM_4_MULT19_FLR_3_PLUGMISC_EQUIP,GUESTROOM_EQP_SCH_ADVA,ROOM_4_MULT19_FLR_3,24.53,1.5,258.061,10.520,172.041,0.000,0.500,0.000,0.500,MiscPlug,0.000,258.061,30.967,232.255,33.548,232.255,258.061,258.061,0.000,0.000
 ElectricEquipment Internal Gains Nominal, ROOM_5_FLR_3_PLUGMISC_EQUIP,GUESTROOM_EQP_SCH_ADVA,ROOM_5_FLR_3,39.02,1.5,263.399,6.750,175.599,0.000,0.500,0.000,0.500,MiscPlug,0.000,263.399,31.608,237.059,34.242,237.059,263.399,263.399,0.000,0.000
 ElectricEquipment Internal Gains Nominal, ROOM_6_FLR_3_PLUGMISC_EQUIP,GUESTROOM_EQP_SCH_ADVA,ROOM_6_FLR_3,39.02,1.5,263.368,6.750,175.579,0.000,0.500,0.000,0.500,MiscPlug,0.000,263.368,31.604,237.031,34.238,237.031,263.368,263.368,0.000,0.000
 ElectricEquipment Internal Gains Nominal, ROOM_1_FLR_6_PLUGMISC_EQUIP,GUESTROOM_EQP_SCH_ADVA,ROOM_1_FLR_6,39.02,1.5,263.399,6.750,175.599,0.000,0.500,0.000,0.500,MiscPlug,0.000,263.399,31.608,237.059,34.242,237.059,263.399,263.399,0.000,0.000
 ElectricEquipment Internal Gains Nominal, ROOM_2_FLR_6_PLUGMISC_EQUIP,GUESTROOM_EQP_SCH_ADVA,ROOM_2_FLR_6,39.02,1.5,263.368,6.750,175.579,0.000,0.500,0.000,0.500,MiscPlug,0.000,263.368,31.604,237.031,34.238,237.031,263.368,263.368,0.000,0.000
 ElectricEquipment Internal Gains Nominal, ROOM_3_MULT9_FLR_6_PLUGMISC_EQUIP,GUESTROOM_EQP_SCH_ADVA,ROOM_3_MULT9_FLR_6,24.53,1.5,258.061,10.520,172.041,0.000,0.500,0.000,0.500,MiscPlug,0.000,258.061,30.967,232.255,33.548,232.255,258.061,258.061,0.000,0.000
 ElectricEquipment Internal Gains Nominal, BANQUET_FLR_6_MISCPLUG_EQUIP,KITCHEN_ELEC_EQUIP_SCH,BANQUET_FLR_6,331.66,249.9,22493.008,67.820,90.009,0.000,0.500,0.000,0.500,Cooking,0.000,6747.903,2249.301,6747.903,2249.301,6747.903,6747.903,6747.903,0.000,0.000
 ElectricEquipment Internal Gains Nominal, DINING_FLR_6_MISCPLUG_EQUIP,KITCHEN_ELEC_EQUIP_SCH,DINING_FLR_6,331.66,249.9,22493.008,67.820,90.009,0.000,0.500,0.000,0.500,Cooking,0.000,6747.903,2249.301,6747.903,2249.301,6747.903,6747.903,6747.903,0.000,0.000
 ElectricEquipment Internal Gains Nominal, KITCHEN_FLR_6_MISCELEC_EQUIP,KITCHEN_ELEC_EQUIP_SCH,KITCHEN_FLR_6,103.30,22.2,52482.799,508.040,2360.050,0.200,0.500,0.100,0.200,Cooking,0.000,15744.840,5248.280,15744.840,5248.280,15744.840,15744.840,15744.840,0.000,0.000
 ElectricEquipment Internal Gains Nominal, KITCHEN_FLR_6_REACH-IN-FREEZER,ALWAYS_ON,KITCHEN_FLR_6,103.30,22.2,277.500,2.686,12.479,0.000,0.250,0.000,0.750,ReachInFreezer,277.500,277.500,277.500,277.500,277.500,277.500,277.500,277.500,277.500,277.500
 ElectricEquipment Internal Gains Nominal, KITCHEN_FLR_6_REACH-IN-REFRIGERATOR,ALWAYS_ON,KITCHEN_FLR_6,103.30,22.2,156.700,1.517,7.046,0.000,0.250,0.000,0.750,ReachInRefrigerator,156.700,156.700,156.700,156.700,156.700,156.700,156.700,156.700,156.700,156.700
! <GasEquipment Internal Gains Nominal>,Name,Schedule Name,Zone Name,Zone Floor Area {m2},# Zone Occupants,Equipment Level {W},Equipment/Floor Area {W/m2},Equipment per person {W/person},Fraction Latent,Fraction Radiant,Fraction Lost,Fraction Convected,End-Use SubCategory,Minimum Equipment Level for All Day Types {W},Maximum Equipment Level for All Day Types {W},Minimum Equipment Level for Weekdays {W}, Maximum Equipment Level for Weekdays {W},Minimum Equipment Level for Weekends/Holidays {W}, Maximum Equipment Level for Weekends /Holidays {W},Minimum Equipment Level for Summer Design Days {W}, Maximum Equipment Level for Summer Design Days {W},Minimum Equipment Level for Winter Design Days {W}, Maximum Equipment Level for Winter Design Days {W}
 GasEquipment Internal Gains Nominal, LAUNDRY_FLR_1_MISCGAS_EQUIP,BLDG_EQUIP_SCH,LAUNDRY_FLR_1,78.04,8.4,41817.449,535.850,4978.268,0.000,0.500,0.000,0.500,Laundry,0.000,41817.449,8363.490,39726.576,8363.490,37635.704,41817.449,41817.449,0.000,0.000
 GasEquipment Internal Gains Nominal, KITCHEN_FLR_6_MISCGAS_EQUIP,KITCHEN_GAS_EQUIP_SCH,KITCHEN_FLR_6,103.30,22.2,249920.353,2419.260,11238.437,0.100,0.200,0.700,0.000,Cooking,0.000,74976.106,4998.407,74976.106,4998.407,74976.106,62480.088,62480.088,0.000,0.000
! <Construction CTF>,Construction Name,Index,#Layers,#CTFs,Time Step {hours},ThermalConductance {w/m2-K},OuterThermalAbsorptance,InnerThermalAbsorptance,OuterSolarAbsorptance,InnerSolarAbsorptance,Roughness
! <Material CTF Summary>,Material Name,Thickness {m},Conductivity {w/m-K},Density {kg/m3},Specific Heat {J/kg-K},ThermalResistance {m2-K/w}
! <Material:Air>,Material Name,ThermalResistance {m2-K/w}
! <CTF>,Time,Outside,Cross,Inside,Flux (except final one)
 Construction CTF,SWINGING DOOR_CON,   1,   1,   1,   0.167,      2.101    ,   0.900,   0.900,   0.700,   0.700,MediumRough
 Material CTF Summary,OPAQUE DOOR PANEL_CON,  0.0000,         0.000,      0.000,        0.000,  0.4760    
 CTF,   1,       0.0000000    ,       0.0000000    ,      -0.0000000    ,      -0.0000000    
 CTF,   0,       2.1009573    ,       2.1009573    ,       2.1009573    
 Construction CTF,OVERHEAD DOOR_CON,   2,   1,   1,   0.167,      1.760    ,   0.900,   0.900,   0.700,   0.700,MediumRough
 Material CTF Summary,OVERHEAD DOOR_CON PANEL,  0.0000,         0.000,      0.000,        0.000,  0.5681    
 CTF,   1,       0.0000000    ,       0.0000000    ,      -0.0000000    ,      -0.0000000    
 CTF,   0,       1.7602615    ,       1.7602615    ,       1.7602615    
 Construction CTF,INTERIORFURNISHINGS,   3,   1,   9,   0.167,     0.8000    ,   0.900,   0.900,   0.700,   0.700,MediumSmooth
 Material CTF Summary,Std Wood 6inch,  0.1500,         0.120,    540.000,     1210.000,   1.250    
 CTF,   9,     -0.27580628E-02,      0.97439125E-12,     -0.27580628E-02,      0.28516790E-03
 CTF,   8,      0.73590997E-01,      0.21837543E-08,      0.73590997E-01,     -0.77836043E-02
 CTF,   7,     -0.82599318    ,      0.23162835E-06,     -0.82599318    ,      0.89703933E-01
 CTF,   6,       5.1113916    ,      0.48671053E-05,       5.1113916    ,     -0.57224845    
 CTF,   5,      -19.214933    ,      0.30163627E-04,      -19.214933    ,       2.2266322    
 CTF,   4,       45.557404    ,      0.63181060E-04,       45.557404    ,      -5.4853312    
 CTF,   3,      -68.275533    ,      0.44785456E-04,      -68.275533    ,       8.5710568    
 CTF,   2,       62.555368    ,      0.93952058E-05,       62.555368    ,      -8.2111738    
 CTF,   1,      -31.904423    ,      0.39200004E-06,      -31.904423    ,       4.3886678    
 CTF,   0,       6.9260389    ,      0.77047546E-09,       6.9260389    
 Construction CTF,INT_WALL,   8,   2,   4,   0.167,      6.299    ,   0.900,   0.900,   0.700,   0.700,Smooth
 Material CTF Summary,G01 13mm gypsum board,  0.0127,         0.160,    800.000,     1090.000,  0.7937E-01
 Material CTF Summary,G01 13mm gypsum board,  0.0127,         0.160,    800.000,     1090.000,  0.7937E-01
 CTF,   4,      0.68458728E-09,      0.26079551E-09,      0.68458728E-09,     -0.34507121E-18
 CTF,   3,     -0.72180374E-03,      0.24295686E-03,     -0.72180374E-03,      0.69691454E-09
 CTF,   2,      0.83054762    ,      0.27682775    ,      0.83054762    ,     -0.35168967E-03
 CTF,   1,      -12.650482    ,       3.3590720    ,      -12.650482    ,      0.19281313    
 CTF,   0,       16.907513    ,       1.4507143    ,       16.907513    
 Construction CTF,NONRES_ROOF,  18,   3,   3,   0.167,     0.1864    ,   0.900,   0.900,   0.770,   0.700,Rough
 Material CTF Summary,F13 Built-up roofing,  0.0095,         0.160,   1120.000,     1460.000,  0.5938E-01
 Material CTF Summary,NONRES_ROOF_INSULATION,  0.0000,         0.000,      0.000,        0.000,   5.307    
 Material CTF Summary,F08 Metal surface,  0.0008,        45.280,   7824.000,      500.000,  0.1767E-04
 CTF,   3,     -0.62854340E-06,      0.84784826E-09,     -0.38512804E-05,      0.91756347E-17
 CTF,   2,      0.78257096    ,      0.11428808E-02,       1.0614277    ,     -0.73836085E-06
 CTF,   1,      -21.991499    ,      0.76199851E-01,      -6.3161914    ,      0.20349372    
 CTF,   0,       21.357363    ,      0.71091016E-01,       5.4032014    
 Construction CTF,RES_ROOF,  19,   3,   3,   0.167,     0.1864    ,   0.900,   0.900,   0.770,   0.700,Rough
 Material CTF Summary,F13 Built-up roofing,  0.0095,         0.160,   1120.000,     1460.000,  0.5938E-01
 Material CTF Summary,RES_ROOF_INSULATION,  0.0000,         0.000,      0.000,        0.000,   5.307    
 Material CTF Summary,F08 Metal surface,  0.0008,        45.280,   7824.000,      500.000,  0.1767E-04
 CTF,   3,     -0.62854340E-06,      0.84784826E-09,     -0.38512804E-05,      0.91756347E-17
 CTF,   2,      0.78257096    ,      0.11428808E-02,       1.0614277    ,     -0.73836085E-06
 CTF,   1,      -21.991499    ,      0.76199851E-01,      -6.3161914    ,      0.20349372    
 CTF,   0,       21.357363    ,      0.71091016E-01,       5.4032014    
 Construction CTF,NONRES_EXT_WALL_GRD,  21,   3,   9,   0.167,     0.7546    ,   0.900,   0.900,   0.700,   0.700,MediumRough
 Material CTF Summary,200mm Normalweight concrete wall,  0.2032,         2.310,   2322.000,      832.000,  0.8797E-01
 Material CTF Summary,NONRES_EXTERIOR_WALL_INSULATION_GRD,  0.0000,         0.000,      0.000,        0.000,   1.158    
 Material CTF Summary,G01 13mm gypsum board,  0.0127,         0.160,    800.000,     1090.000,  0.7937E-01
 CTF,   9,     -0.43711420E-14,      0.31093217E-16,     -0.15789436E-09,      0.78758550E-16
 CTF,   8,      0.23022052E-07,      0.10246757E-12,      0.38974329E-03,     -0.26176864E-09
 CTF,   7,     -0.12597811E-01,      0.52558284E-08,     -0.23598652E-01,      0.14324170E-03
 CTF,   6,      0.41503002    ,      0.18224974E-05,      0.48032647    ,     -0.48618624E-02
 CTF,   5,      -5.2850199    ,      0.67859432E-04,      -4.5044765    ,      0.64355069E-01
 CTF,   4,       33.420626    ,      0.55371102E-03,       21.687353    ,     -0.42766977    
 CTF,   3,      -112.11499    ,      0.12040638E-02,      -56.112333    ,       1.5280352    
 CTF,   2,       198.01198    ,      0.67593269E-03,       78.322831    ,      -2.9147046    
 CTF,   1,      -171.48986    ,      0.72025056E-04,      -55.385224    ,       2.7512893    
 CTF,   0,       57.057407    ,      0.40909525E-06,       15.537308    
 Construction CTF,NONRES_EXT_WALL_MID,  22,   3,   9,   0.167,     0.8883    ,   0.900,   0.900,   0.700,   0.700,MediumRough
 Material CTF Summary,200mm Normalweight concrete wall,  0.2032,         2.310,   2322.000,      832.000,  0.8797E-01
 Material CTF Summary,NONRES_EXTERIOR_WALL_INSULATION_MID,  0.0000,         0.000,      0.000,        0.000,  0.9584    
 Material CTF Summary,G01 13mm gypsum board,  0.0127,         0.160,    800.000,     1090.000,  0.7937E-01
 CTF,   9,     -0.25066581E-14,      0.33473338E-16,     -0.15165523E-09,      0.38583792E-16
 CTF,   8,      0.22146796E-07,      0.11988460E-12,      0.38064773E-03,     -0.25181670E-09
 CTF,   7,     -0.12326740E-01,      0.62060581E-08,     -0.23208464E-01,      0.14015953E-03
 CTF,   6,      0.40766501    ,      0.21598984E-05,      0.47406221    ,     -0.47750464E-02
 CTF,   5,      -5.2131519    ,      0.80676365E-04,      -4.4564008    ,      0.63463932E-01
 CTF,   4,       33.102770    ,      0.66017470E-03,       21.499520    ,     -0.42344947    
 CTF,   3,      -111.43882    ,      0.14392361E-02,      -55.741026    ,       1.5182660    
 CTF,   2,       197.34194    ,      0.80979329E-03,       77.982142    ,      -2.9040641    
 CTF,   1,      -171.24241    ,      0.86470291E-04,      -55.285886    ,       2.7469524    
 CTF,   0,       57.057407    ,      0.49239716E-06,       15.553494    
 Construction CTF,NONRES_EXT_WALL_TOP,  23,   3,   9,   0.167,     0.8810    ,   0.900,   0.900,   0.700,   0.700,MediumRough
 Material CTF Summary,200mm Normalweight concrete wall,  0.2032,         2.310,   2322.000,      832.000,  0.8797E-01
 Material CTF Summary,NONRES_EXTERIOR_WALL_INSULATION_TOP,  0.0000,         0.000,      0.000,        0.000,  0.9677    
 Material CTF Summary,G01 13mm gypsum board,  0.0127,         0.160,    800.000,     1090.000,  0.7937E-01
 CTF,   9,     -0.28459328E-14,      0.32762126E-16,     -0.15199605E-09,      0.43003076E-16
 CTF,   8,      0.22194661E-07,      0.11894586E-12,      0.38114823E-03,     -0.25236094E-09
 CTF,   7,     -0.12341667E-01,      0.61542415E-08,     -0.23229953E-01,      0.14032925E-03
 CTF,   6,      0.40807058    ,      0.21414273E-05,      0.47440742    ,     -0.47798271E-02
 CTF,   5,      -5.2171096    ,      0.79972373E-04,      -4.4590513    ,      0.63513007E-01
 CTF,   4,       33.120275    ,      0.65430996E-03,       21.509879    ,     -0.42368190    
 CTF,   3,      -111.47606    ,      0.14262484E-02,      -55.761503    ,       1.5188041    
 CTF,   2,       197.37885    ,      0.80238430E-03,       78.000927    ,      -2.9046503    
 CTF,   1,      -171.25604    ,      0.85669138E-04,      -55.291354    ,       2.7471913    
 CTF,   0,       57.057407    ,      0.48777329E-06,       15.552596    
 Construction CTF,RES_EXT_WALL_MID,  25,   3,   9,   0.167,     0.7876    ,   0.900,   0.900,   0.700,   0.700,MediumRough
 Material CTF Summary,200mm Normalweight concrete wall,  0.2032,         2.310,   2322.000,      832.000,  0.8797E-01
 Material CTF Summary,RES_EXTERIOR_WALL_INSULATION_MID,  0.0000,         0.000,      0.000,        0.000,   1.102    
 Material CTF Summary,G01 13mm gypsum board,  0.0127,         0.160,    800.000,     1090.000,  0.7937E-01
 CTF,   9,     -0.42844289E-14,      0.28320545E-16,     -0.15636867E-09,      0.85480581E-16
 CTF,   8,      0.22806714E-07,      0.10679199E-12,      0.38751646E-03,     -0.25932016E-09
 CTF,   7,     -0.12531483E-01,      0.54901366E-08,     -0.23503188E-01,      0.14248753E-03
 CTF,   6,      0.41322793    ,      0.19054371E-05,      0.47879461    ,     -0.48406201E-02
 CTF,   5,      -5.2674357    ,      0.71001872E-04,      -4.4927242    ,      0.64137031E-01
 CTF,   4,       33.342859    ,      0.57975360E-03,       21.641446    ,     -0.42663722    
 CTF,   3,      -111.94957    ,      0.12614747E-02,      -56.021588    ,       1.5256452    
 CTF,   2,       197.84807    ,      0.70855353E-03,       78.239553    ,      -2.9121017    
 CTF,   1,      -171.42933    ,      0.75539563E-04,      -55.360912    ,       2.7502285    
 CTF,   0,       57.057407    ,      0.42933555E-06,       15.541245    
 Construction CTF,RES_EXT_WALL_TOP,  26,   3,   9,   0.167,     0.7805    ,   0.900,   0.900,   0.700,   0.700,MediumRough
 Material CTF Summary,200mm Normalweight concrete wall,  0.2032,         2.310,   2322.000,      832.000,  0.8797E-01
 Material CTF Summary,RES_EXTERIOR_WALL_INSULATION_TOP,  0.0000,         0.000,      0.000,        0.000,   1.114    
 Material CTF Summary,G01 13mm gypsum board,  0.0127,         0.160,    800.000,     1090.000,  0.7937E-01
 CTF,   9,     -0.42353945E-14,      0.27136288E-16,     -0.15669806E-09,      0.83928570E-16
 CTF,   8,      0.22852977E-07,      0.10586107E-12,      0.38799547E-03,     -0.25984619E-09
 CTF,   7,     -0.12545752E-01,      0.54398248E-08,     -0.23523727E-01,      0.14264978E-03
 CTF,   6,      0.41361563    ,      0.18876143E-05,      0.47912423    ,     -0.48451901E-02
 CTF,   5,      -5.2712188    ,      0.70326153E-04,      -4.4952532    ,      0.64183940E-01
 CTF,   4,       33.359590    ,      0.57415042E-03,       21.651325    ,     -0.42685937    
 CTF,   3,      -111.98516    ,      0.12491162E-02,      -56.041117    ,       1.5261594    
 CTF,   2,       197.88333    ,      0.70152833E-03,       78.257474    ,      -2.9126617    
 CTF,   1,      -171.44235    ,      0.74782356E-04,      -55.366142    ,       2.7504567    
 CTF,   0,       57.057407    ,      0.42497884E-06,       15.540397    
 Construction CTF,NONRES_FLOOR,  30,   3,   7,   0.167,     0.2277    ,   0.900,   0.900,   0.700,   0.700,MediumSmooth
 Material CTF Summary,NONRES_FLOOR_INSULATION,  0.0000,         0.000,      0.000,        0.000,   4.131    
 Material CTF Summary,100mm Normalweight concrete floor,  0.1016,         2.310,   2322.000,      832.000,  0.4398E-01
 Material CTF Summary,CP02 CARPET PAD,  0.0000,         0.000,      0.000,        0.000,  0.2165    
 CTF,   7,     -0.14139450E-14,     -0.18802902E-16,     -0.22311785E-13,      0.54375338E-15
 CTF,   6,      0.16999971E-10,      0.27590984E-11,      0.52267399E-09,     -0.18616555E-10
 CTF,   5,     -0.63950587E-07,      0.13451749E-07,     -0.21905428E-05,      0.17144787E-06
 CTF,   4,      0.72477507E-04,      0.50724086E-05,      0.17668371E-02,     -0.28223350E-03
 CTF,   3,     -0.10573811E-01,      0.17927531E-03,     -0.21549182    ,      0.43318087E-01
 CTF,   2,      0.15010112    ,      0.77388015E-03,       2.8998331    ,     -0.61891034    
 CTF,   1,     -0.37982851    ,      0.49528818E-03,      -7.1368477    ,       1.5694772    
 CTF,   0,      0.24168561    ,      0.34021171E-05,       4.4521969    
 Construction CTF,NONRES_FLOOR_CEILING,  33,   3,   7,   0.167,     0.2277    ,   0.900,   0.900,   0.700,   0.700,VeryRough
 Material CTF Summary,CP02 CARPET PAD,  0.0000,         0.000,      0.000,        0.000,  0.2165    
 Material CTF Summary,100mm Normalweight concrete floor,  0.1016,         2.310,   2322.000,      832.000,  0.4398E-01
 Material CTF Summary,NONRES_FLOOR_INSULATION,  0.0000,         0.000,      0.000,        0.000,   4.131    
 CTF,   7,     -0.22311785E-13,     -0.18802902E-16,     -0.14139450E-14,      0.54375338E-15
 CTF,   6,      0.52267399E-09,      0.27590984E-11,      0.16999971E-10,     -0.18616555E-10
 CTF,   5,     -0.21905428E-05,      0.13451749E-07,     -0.63950587E-07,      0.17144787E-06
 CTF,   4,      0.17668371E-02,      0.50724086E-05,      0.72477507E-04,     -0.28223350E-03
 CTF,   3,     -0.21549182    ,      0.17927531E-03,     -0.10573811E-01,      0.43318087E-01
 CTF,   2,       2.8998331    ,      0.77388015E-03,      0.15010112    ,     -0.61891034    
 CTF,   1,      -7.1368477    ,      0.49528818E-03,     -0.37982851    ,       1.5694772    
 CTF,   0,       4.4521969    ,      0.34021171E-05,      0.24168561    
 Construction CTF,BASEMENT_FLOOR,  36,   2,   7,   0.333,      2.705    ,   0.900,   0.900,   0.700,   0.700,MediumRough
 Material CTF Summary,M10 200mm concrete block basement wall,  0.2032,         1.326,   1842.000,      912.000,  0.1532    
 Material CTF Summary,CP02 CARPET PAD,  0.0000,         0.000,      0.000,        0.000,  0.2165    
 CTF,   7,     -0.52459208E-15,     -0.63961428E-15,     -0.12292524E-09,     -0.35846135E-17
 CTF,   6,      0.39860198E-02,      0.96339020E-07,      0.40499006E-03,     -0.70890431E-04
 CTF,   5,     -0.20832379    ,      0.49172556E-04,     -0.20585669E-01,      0.38489246E-02
 CTF,   4,       3.5198270    ,      0.18993977E-02,      0.34924834    ,     -0.69168259E-01
 CTF,   3,      -23.366787    ,      0.13311857E-01,      -2.4329538    ,      0.50524779    
 CTF,   2,       64.890127    ,      0.19943872E-01,       7.3672511    ,      -1.5911358    
 CTF,   1,      -76.040094    ,      0.56792084E-02,      -9.5568013    ,       2.1361271    
 CTF,   0,       31.242244    ,      0.96490710E-04,       4.3344156    
 Construction CTF,BASEMENT_WALL_NORTH_CFACTOR,  39,   2,   7,   0.167,     0.4185    ,   0.000,   0.900,   0.000,   0.700,MediumRough
 Material CTF Summary,~FC_Insulation_1,  0.0000,         0.000,      0.000,        0.000,   2.312    
 Material CTF Summary,~FC_Concrete,  0.1500,         1.950,   2240.000,      900.000,  0.7692E-01
 CTF,   7,     -0.98583555E-09,     -0.79843648E-16,      0.12056005E-14,      0.46388562E-17
 CTF,   6,      0.11736010E-04,      0.80964505E-08,      0.31724491E-02,     -0.26613162E-04
 CTF,   5,     -0.85155955E-03,      0.48044989E-05,     -0.22273424    ,      0.19474091E-02
 CTF,   4,      0.19629464E-01,      0.21887653E-03,       4.8130477    ,     -0.45106395E-01
 CTF,   3,     -0.17247723    ,      0.17421542E-02,      -37.928201    ,      0.39762344    
 CTF,   2,      0.61254091    ,      0.29000861E-02,       116.30250    ,      -1.4155123    
 CTF,   1,     -0.88416489    ,      0.88473762E-03,      -143.80049    ,       2.0472841    
 CTF,   0,      0.43108349    ,      0.21254961E-04,       60.838472    
 Construction CTF,BASEMENT_WALL_EAST_CFACTOR,  40,   2,   7,   0.167,     0.4185    ,   0.000,   0.900,   0.000,   0.700,MediumRough
 Material CTF Summary,~FC_Insulation_2,  0.0000,         0.000,      0.000,        0.000,   2.312    
 Material CTF Summary,~FC_Concrete,  0.1500,         1.950,   2240.000,      900.000,  0.7692E-01
 CTF,   7,     -0.98583555E-09,     -0.79843648E-16,      0.12056005E-14,      0.46388562E-17
 CTF,   6,      0.11736010E-04,      0.80964505E-08,      0.31724491E-02,     -0.26613162E-04
 CTF,   5,     -0.85155955E-03,      0.48044989E-05,     -0.22273424    ,      0.19474091E-02
 CTF,   4,      0.19629464E-01,      0.21887653E-03,       4.8130477    ,     -0.45106395E-01
 CTF,   3,     -0.17247723    ,      0.17421542E-02,      -37.928201    ,      0.39762344    
 CTF,   2,      0.61254091    ,      0.29000861E-02,       116.30250    ,      -1.4155123    
 CTF,   1,     -0.88416489    ,      0.88473762E-03,      -143.80049    ,       2.0472841    
 CTF,   0,      0.43108349    ,      0.21254961E-04,       60.838472    
 Construction CTF,BASEMENT_WALL_SOUTH_CFACTOR,  41,   2,   7,   0.167,     0.4185    ,   0.000,   0.900,   0.000,   0.700,MediumRough
 Material CTF Summary,~FC_Insulation_3,  0.0000,         0.000,      0.000,        0.000,   2.312    
 Material CTF Summary,~FC_Concrete,  0.1500,         1.950,   2240.000,      900.000,  0.7692E-01
 CTF,   7,     -0.98583555E-09,     -0.79843648E-16,      0.12056005E-14,      0.46388562E-17
 CTF,   6,      0.11736010E-04,      0.80964505E-08,      0.31724491E-02,     -0.26613162E-04
 CTF,   5,     -0.85155955E-03,      0.48044989E-05,     -0.22273424    ,      0.19474091E-02
 CTF,   4,      0.19629464E-01,      0.21887653E-03,       4.8130477    ,     -0.45106395E-01
 CTF,   3,     -0.17247723    ,      0.17421542E-02,      -37.928201    ,      0.39762344    
 CTF,   2,      0.61254091    ,      0.29000861E-02,       116.30250    ,      -1.4155123    
 CTF,   1,     -0.88416489    ,      0.88473762E-03,      -143.80049    ,       2.0472841    
 CTF,   0,      0.43108349    ,      0.21254961E-04,       60.838472    
 Construction CTF,BASEMENT_WALL_WEST_CFACTOR,  42,   2,   7,   0.167,     0.4185    ,   0.000,   0.900,   0.000,   0.700,MediumRough
 Material CTF Summary,~FC_Insulation_4,  0.0000,         0.000,      0.000,        0.000,   2.312    
 Material CTF Summary,~FC_Concrete,  0.1500,         1.950,   2240.000,      900.000,  0.7692E-01
 CTF,   7,     -0.98583555E-09,     -0.79843648E-16,      0.12056005E-14,      0.46388562E-17
 CTF,   6,      0.11736010E-04,      0.80964505E-08,      0.31724491E-02,     -0.26613162E-04
 CTF,   5,     -0.85155955E-03,      0.48044989E-05,     -0.22273424    ,      0.19474091E-02
 CTF,   4,      0.19629464E-01,      0.21887653E-03,       4.8130477    ,     -0.45106395E-01
 CTF,   3,     -0.17247723    ,      0.17421542E-02,      -37.928201    ,      0.39762344    
 CTF,   2,      0.61254091    ,      0.29000861E-02,       116.30250    ,      -1.4155123    
 CTF,   1,     -0.88416489    ,      0.88473762E-03,      -143.80049    ,       2.0472841    
 CTF,   0,      0.43108349    ,      0.21254961E-04,       60.838472    
! <WindowConstruction>,Construction Name,Index,#Layers,Roughness,Conductance {W/m2-K},Conductance (Before Adjusted) {W/m2-K},Convection Coefficient Adjustment Ratio,SHGC,Solar Transmittance at Normal Incidence,Visible Transmittance at Normal Incidence
! <WindowMaterial:Glazing>, Material Name, Optical Data Type, Spectral Data Set Name, Thickness {m}, Solar Transmittance,Front Solar Reflectance, Back Solar Reflectance, Visible Transmittance, Front Visible Reflectance,Back Visible Reflectance,Infrared Transmittance, Front Thermal Emissivity, Back Thermal Emissivity,Conductivity {W/m-K},Dirt Factor,Solar Diffusing
 WindowConstruction,NONRESWINDOW_U_0.248_SHGC_0.21,37,1,VerySmooth,1.408,1.408,1.000,0.210,0.121,0.290
 WindowMaterial:Glazing,GLAZING LAYER,SpectralAverage,,4.57814E-002,0.12126,0.67915,0.67915,0.29000,0.15345,0.21878,0.00000,0.84000,0.84000,8.56546E-002,1.00000,No
 WindowConstruction,RESWINDOW_U_0.248_SHGC_0.21,38,1,VerySmooth,1.408,1.408,1.000,0.210,0.121,0.290
 WindowMaterial:Glazing,RESIDENTIAL WINDOW GLAZING LAYER,SpectralAverage,,4.57814E-002,0.12126,0.67915,0.67915,0.29000,0.15345,0.21878,0.00000,0.84000,0.84000,8.56546E-002,1.00000,No
! <Enclosure/Window Adjacency Daylighting Counts>, Enclosure Name, Number of Exterior Windows, Number of Exterior Windows in Adjacent Enclosures
Enclosure/Window Adjacency Daylighting Counts, CAFE_FLR_1,1,0
Enclosure/Window Adjacency Daylighting Counts, LOBBY_FLR_1,1,0
Enclosure/Window Adjacency Daylighting Counts, BANQUET_FLR_6,1,0
Enclosure/Window Adjacency Daylighting Counts, DINING_FLR_6,1,0
! <Enclosure/Window Adjacency Daylighting Matrix>, Enclosure Name, Number of Adjacent Enclosures with Windows,Adjacent Enclosure Names - 1st 100 (max)
Enclosure/Window Adjacency Daylighting Matrix, CAFE_FLR_1,0
Enclosure/Window Adjacency Daylighting Matrix, LOBBY_FLR_1,0
Enclosure/Window Adjacency Daylighting Matrix, BANQUET_FLR_6,0
Enclosure/Window Adjacency Daylighting Matrix, DINING_FLR_6,0
! <#Refrigeration Compressor Racks>,Number of Refrigeration Compressor Racks
! <Refrigeration Compressor Rack>,Compressor Rack Name, # Refrigerated Cases Connected,# WalkIn Coolers Connected, Heat Rejection Location, Condenser Type, COP
!  <Refrigeration Case>,Refrigeration Case Number, Refrigeration Case Name,Zone Name,Zone Node #,Zone Node Name,Capacity (W/m),LHR,Temperature (C),Length (m),Fan (W/m),Installed Lighting (W/m),Anti-Sweat (W/m),Defrost (W/m)
#Refrigeration Compressor Racks, 2
 Refrigeration Compressor Rack,RACK1,1,0,Zone,Air-Cooled,2.320
   Refrigeration Case,1,KITCHEN_FLR_6_CASE:1_WALKINFREEZER,KITCHEN_FLR_6,212,KITCHEN_FLR_6 AIR NODE,367.0,0.10,-23.0,7.3,9.7,16.4,0.0,273.0
 Refrigeration Compressor Rack,RACK2,1,0,Zone,Air-Cooled,6.980
   Refrigeration Case,2,KITCHEN_FLR_6_CASE:2_SELFCONTAINEDDISPLAYCASE,KITCHEN_FLR_6,212,KITCHEN_FLR_6 AIR NODE,734.0,8.00E-002,2.0,3.7,15.7,33.0,0.0,0.0
! <Water Heater Information>,Type,Name,Volume {m3},Maximum Capacity {W},Standard Rated Recovery Efficiency, Standard Rated Energy Factor
! <Surface Convection Parameters>, Surface Name, Outside Model Assignment, Outside Area [m2], Outside Perimeter [m], Outside Height [m], Inside Model Assignment, Inside Height [m], Inside Perimeter Envelope [m], Inside Hydraulic Diameter [m], Window Wall Ratio, Window Location, Near Radiant {Yes/No}, Has Active HVAC {Yes/No}
Surface Convection Parameters,BASEMENT_WALL_NORTH,0,0.00,0.00,0.00,0,2.44,0.00,36.17,-999.00,0,No,No
Surface Convection Parameters,BASEMENT_WALL_EAST,0,0.00,0.00,0.00,0,2.44,0.00,36.17,-999.00,0,No,No
Surface Convection Parameters,BASEMENT_WALL_SOUTH,0,0.00,0.00,0.00,0,2.44,0.00,36.17,-999.00,0,No,No
Surface Convection Parameters,BASEMENT_WALL_WEST,0,0.00,0.00,0.00,0,2.44,0.00,36.17,-999.00,0,No,No
Surface Convection Parameters,BASEMENT_FLOOR,0,0.00,0.00,0.00,0,2.44,0.00,36.17,-999.00,0,No,No
Surface Convection Parameters,BASEMENT_CEILING_1,0,0.00,0.00,0.00,0,2.44,0.00,36.17,-999.00,0,No,No
Surface Convection Parameters,BASEMENT_CEILING_2,0,0.00,0.00,0.00,0,2.44,0.00,36.17,-999.00,0,No,No
Surface Convection Parameters,BASEMENT_CEILING_3,0,0.00,0.00,0.00,0,2.44,0.00,36.17,-999.00,0,No,No
Surface Convection Parameters,BASEMENT_CEILING_4,0,0.00,0.00,0.00,0,2.44,0.00,36.17,-999.00,0,No,No
Surface Convection Parameters,BASEMENT_CEILING_5,0,0.00,0.00,0.00,0,2.44,0.00,36.17,-999.00,0,No,No
Surface Convection Parameters,BASEMENT_CEILING_6,0,0.00,0.00,0.00,0,2.44,0.00,36.17,-999.00,0,No,No
Surface Convection Parameters,BASEMENT_CEILING_7,0,0.00,0.00,0.00,0,2.44,0.00,36.17,-999.00,0,No,No
Surface Convection Parameters,BASEMENT_CEILING_8,0,0.00,0.00,0.00,0,2.44,0.00,36.17,-999.00,0,No,No
Surface Convection Parameters,BASEMENT_INTERNALMASS_1,0,0.00,0.00,0.00,0,2.44,0.00,36.17,-999.00,0,No,No
Surface Convection Parameters,RETAIL_1_FLR_1_WALL_SOUTH,0,506.51,211.91,19.20,0,3.96,17.37,7.72,0.34,4,No,No
Surface Convection Parameters,RETAIL_1_FLR_1_WALL_SOUTH_WINDOW,0,506.51,211.91,19.20,0,3.96,17.37,7.72,0.34,1,No,No
Surface Convection Parameters,RETAIL_1_FLR_1_WALL_WEST,0,194.63,84.12,19.20,0,3.96,17.37,7.72,0.34,3,No,No
Surface Convection Parameters,RETAIL_1_FLR_1_WALL_NORTH,0,0.00,0.00,0.00,0,3.96,17.37,7.72,0.34,0,No,No
Surface Convection Parameters,RETAIL_1_FLR_1_WALL_EAST,0,0.00,0.00,0.00,0,3.96,17.37,7.72,0.34,0,No,No
Surface Convection Parameters,RETAIL_1_FLR_1_FLOOR,0,0.00,0.00,0.00,0,3.96,17.37,7.72,0.34,0,No,No
Surface Convection Parameters,RETAIL_1_FLR_1_CEILING,0,1782.60,399.29,0.00,0,3.96,17.37,7.72,0.34,0,No,No
Surface Convection Parameters,RETAIL_1_FLR_1_INTERNALMASS_1,0,0.00,0.00,0.00,0,3.96,17.37,7.72,0.34,0,No,No
Surface Convection Parameters,RETAIL_2_FLR_1_WALL_WEST,0,194.63,84.12,19.20,0,3.96,6.71,8.49,0.00,0,No,No
Surface Convection Parameters,RETAIL_2_FLR_1_WALL_WEST_DOOR,0,194.63,84.12,19.20,0,3.96,6.71,8.49,0.00,0,No,No
Surface Convection Parameters,RETAIL_2_FLR_1_WALL_SOUTH,0,0.00,0.00,0.00,0,3.96,6.71,8.49,0.00,0,No,No
Surface Convection Parameters,RETAIL_2_FLR_1_WALL_NORTH,0,0.00,0.00,0.00,0,3.96,6.71,8.49,0.00,0,No,No
Surface Convection Parameters,RETAIL_2_FLR_1_WALL_EAST,0,0.00,0.00,0.00,0,3.96,6.71,8.49,0.00,0,No,No
Surface Convection Parameters,RETAIL_2_FLR_1_FLOOR,0,0.00,0.00,0.00,0,3.96,6.71,8.49,0.00,0,No,No
Surface Convection Parameters,RETAIL_2_FLR_1_CEILING,0,0.00,0.00,0.00,0,3.96,6.71,8.49,0.00,0,No,No
Surface Convection Parameters,RETAIL_2_FLR_1_INTERNALMASS_1,0,0.00,0.00,0.00,0,3.96,6.71,8.49,0.00,0,No,No
Surface Convection Parameters,MECH_FLR_1_WALL_NORTH,0,670.01,217.46,19.20,0,3.96,15.85,12.53,0.00,0,No,No
Surface Convection Parameters,MECH_FLR_1_WALL_EAST,0,0.00,0.00,0.00,0,3.96,15.85,12.53,0.00,0,No,No
Surface Convection Parameters,MECH_FLR_1_WALL_SOUTH,0,0.00,0.00,0.00,0,3.96,15.85,12.53,0.00,0,No,No
Surface Convection Parameters,MECH_FLR_1_WALL_WEST,0,0.00,0.00,0.00,0,3.96,15.85,12.53,0.00,0,No,No
Surface Convection Parameters,MECH_FLR_1_FLOOR,0,0.00,0.00,0.00,0,3.96,15.85,12.53,0.00,0,No,No
Surface Convection Parameters,MECH_FLR_1_CEILING,0,0.00,0.00,0.00,0,3.96,15.85,12.53,0.00,0,No,No
Surface Convection Parameters,MECH_FLR_1_INTERNALMASS_1,0,0.00,0.00,0.00,0,3.96,15.85,12.53,0.00,0,No,No
Surface Convection Parameters,STORAGE_FLR_1_WALL_NORTH,0,670.01,217.46,19.20,0,3.96,9.14,9.72,0.00,0,No,No
Surface Convection Parameters,STORAGE_FLR_1_WALL_NORTH_ROLLDOOR,0,670.01,217.46,19.20,0,3.96,9.14,9.72,0.00,0,No,No
Surface Convection Parameters,STORAGE_FLR_1_WALL_EAST,0,0.00,0.00,0.00,0,3.96,9.14,9.72,0.00,0,No,No
Surface Convection Parameters,STORAGE_FLR_1_WALL_SOUTH,0,0.00,0.00,0.00,0,3.96,9.14,9.72,0.00,0,No,No
Surface Convection Parameters,STORAGE_FLR_1_WALL_WEST,0,0.00,0.00,0.00,0,3.96,9.14,9.72,0.00,0,No,No
Surface Convection Parameters,STORAGE_FLR_1_FLOOR,0,0.00,0.00,0.00,0,3.96,9.14,9.72,0.00,0,No,No
Surface Convection Parameters,STORAGE_FLR_1_CEILING,0,0.00,0.00,0.00,0,3.96,9.14,9.72,0.00,0,No,No
Surface Convection Parameters,STORAGE_FLR_1_INTERNALMASS_1,0,0.00,0.00,0.00,0,3.96,9.14,9.72,0.00,0,No,No
Surface Convection Parameters,LAUNDRY_FLR_1_WALL_NORTH,0,670.01,217.46,19.20,0,3.96,21.64,7.21,0.00,0,No,No
Surface Convection Parameters,LAUNDRY_FLR_1_WALL_EAST,0,194.63,217.46,19.20,0,3.96,21.64,7.21,0.00,0,No,No
Surface Convection Parameters,LAUNDRY_FLR_1_WALL_EAST_DOOR,0,194.63,217.46,19.20,0,3.96,21.64,7.21,0.00,0,No,No
Surface Convection Parameters,LAUNDRY_FLR_1_WALL_SOUTH,0,0.00,0.00,0.00,0,3.96,21.64,7.21,0.00,0,No,No
Surface Convection Parameters,LAUNDRY_FLR_1_WALL_WEST,0,0.00,0.00,0.00,0,3.96,21.64,7.21,0.00,0,No,No
Surface Convection Parameters,LAUNDRY_FLR_1_FLOOR,0,0.00,0.00,0.00,0,3.96,21.64,7.21,0.00,0,No,No
Surface Convection Parameters,LAUNDRY_FLR_1_CEILING,0,0.00,0.00,0.00,0,3.96,21.64,7.21,0.00,0,No,No
Surface Convection Parameters,LAUNDRY_FLR_1_INTERNALMASS_1,0,0.00,0.00,0.00,0,3.96,21.64,7.21,0.00,0,No,No
Surface Convection Parameters,CAFE_FLR_1_WALL_EAST,0,194.63,217.46,19.20,0,3.96,38.40,9.84,0.43,3,No,No
Surface Convection Parameters,CAFE_FLR_1_WALL_EAST_DOOR,0,194.63,217.46,19.20,0,3.96,38.40,9.84,0.43,0,No,No
Surface Convection Parameters,CAFE_FLR_1_WALL_SOUTH,0,506.51,211.91,19.20,0,3.96,38.40,9.84,0.43,4,No,No
Surface Convection Parameters,CAFE_FLR_1_WALL_SOUTH_WINDOW,0,506.51,211.91,19.20,0,3.96,38.40,9.84,0.43,1,No,No
Surface Convection Parameters,CAFE_FLR_1_WALL_1_NORTH,0,0.00,0.00,0.00,0,3.96,38.40,9.84,0.43,0,No,No
Surface Convection Parameters,CAFE_FLR_1_WALL_2_NORTH,0,0.00,0.00,0.00,0,3.96,38.40,9.84,0.43,0,No,No
Surface Convection Parameters,CAFE_FLR_1_WALL_WEST,0,0.00,0.00,0.00,0,3.96,38.40,9.84,0.43,0,No,No
Surface Convection Parameters,CAFE_FLR_1_FLOOR,0,0.00,0.00,0.00,0,3.96,38.40,9.84,0.43,0,No,No
Surface Convection Parameters,CAFE_FLR_1_CEILING,0,1782.60,399.29,0.00,0,3.96,38.40,9.84,0.43,0,No,No
Surface Convection Parameters,CAFE_FLR_1_INTERNALMASS_1,0,0.00,0.00,0.00,0,3.96,38.40,9.84,0.43,0,No,No
Surface Convection Parameters,LOBBY_FLR_1_WALL_1_NORTH,0,670.01,217.46,19.20,0,3.96,109.73,24.95,0.20,3,No,No
Surface Convection Parameters,LOBBY_FLR_1_WALL_1_NORTH_DOOR1,0,670.01,217.46,19.20,0,3.96,109.73,24.95,0.20,0,No,No
Surface Convection Parameters,LOBBY_FLR_1_WALL_1_NORTH_DOOR2,0,670.01,217.46,19.20,0,3.96,109.73,24.95,0.20,0,No,No
Surface Convection Parameters,LOBBY_FLR_1_WALL_2_NORTH,0,670.01,217.46,19.20,0,3.96,109.73,24.95,0.20,4,No,No
Surface Convection Parameters,LOBBY_FLR_1_WALL_1_SOUTH,0,506.51,211.91,19.20,0,3.96,109.73,24.95,0.20,4,No,No
Surface Convection Parameters,LOBBY_FLR_1_WALL_SOUTH_WINDOW,0,506.51,211.91,19.20,0,3.96,109.73,24.95,0.20,1,No,No
Surface Convection Parameters,LOBBY_FLR_1_WALL_1_WEST,0,194.63,84.12,19.20,0,3.96,109.73,24.95,0.20,3,No,No
Surface Convection Parameters,LOBBY_FLR_1_WALL_2_SOUTH,0,0.00,0.00,0.00,0,3.96,109.73,24.95,0.20,0,No,No
Surface Convection Parameters,LOBBY_FLR_1_WALL_3_SOUTH,0,0.00,0.00,0.00,0,3.96,109.73,24.95,0.20,0,No,No
Surface Convection Parameters,LOBBY_FLR_1_WALL_2_WEST,0,0.00,0.00,0.00,0,3.96,109.73,24.95,0.20,0,No,No
Surface Convection Parameters,LOBBY_FLR_1_WALL_3_WEST,0,0.00,0.00,0.00,0,3.96,109.73,24.95,0.20,0,No,No
Surface Convection Parameters,LOBBY_FLR_1_WALL_4_WEST,0,0.00,0.00,0.00,0,3.96,109.73,24.95,0.20,0,No,No
Surface Convection Parameters,LOBBY_FLR_1_WALL_3_NORTH,0,0.00,0.00,0.00,0,3.96,109.73,24.95,0.20,0,No,No
Surface Convection Parameters,LOBBY_FLR_1_WALL_4_NORTH,0,0.00,0.00,0.00,0,3.96,109.73,24.95,0.20,0,No,No
Surface Convection Parameters,LOBBY_FLR_1_WALL_1_EAST,0,0.00,0.00,0.00,0,3.96,109.73,24.95,0.20,0,No,No
Surface Convection Parameters,LOBBY_FLR_1_WALL_2_EAST,0,0.00,0.00,0.00,0,3.96,109.73,24.95,0.20,0,No,No
Surface Convection Parameters,LOBBY_FLR_1_WALL_3_EAST,0,0.00,0.00,0.00,0,3.96,109.73,24.95,0.20,0,No,No
Surface Convection Parameters,LOBBY_FLR_1_FLOOR_1,0,0.00,0.00,0.00,0,3.96,109.73,24.95,0.20,0,No,No
Surface Convection Parameters,LOBBY_FLR_1_FLOOR_2,0,0.00,0.00,0.00,0,3.96,109.73,24.95,0.20,0,No,No
Surface Convection Parameters,LOBBY_FLR_1_CEILING_1,0,0.00,0.00,0.00,0,3.96,109.73,24.95,0.20,0,No,No
Surface Convection Parameters,LOBBY_FLR_1_CEILING_2,0,1782.60,399.29,0.00,0,3.96,109.73,24.95,0.20,0,No,No
Surface Convection Parameters,LOBBY_FLR_1_INTERNALMASS_1,0,0.00,0.00,0.00,0,3.96,109.73,24.95,0.20,0,No,No
Surface Convection Parameters,ROOM_1_FLR_3_WALL_SOUTH,0,506.51,211.91,19.20,0,3.05,13.11,5.95,0.33,3,No,No
Surface Convection Parameters,ROOM_1_FLR_3_WALL_SOUTH_WINDOW,0,506.51,211.91,19.20,0,3.05,13.11,5.95,0.33,2,No,No
Surface Convection Parameters,ROOM_1_FLR_3_WALL_WEST,0,194.63,84.12,19.20,0,3.05,13.11,5.95,0.33,3,No,No
Surface Convection Parameters,ROOM_1_FLR_3_WALL_WEST_WINDOW,0,194.63,84.12,19.20,0,3.05,13.11,5.95,0.33,2,No,No
Surface Convection Parameters,ROOM_1_FLR_3_WALL_NORTH,0,0.00,0.00,0.00,0,3.05,13.11,5.95,0.33,0,No,No
Surface Convection Parameters,ROOM_1_FLR_3_WALL_EAST,0,0.00,0.00,0.00,0,3.05,13.11,5.95,0.33,0,No,No
Surface Convection Parameters,ROOM_1_FLR_3_FLOOR,0,0.00,0.00,0.00,0,3.05,13.11,5.95,0.33,0,No,No
Surface Convection Parameters,ROOM_1_FLR_3_CEILING,0,0.00,0.00,0.00,0,3.05,13.11,5.95,0.33,0,No,No
Surface Convection Parameters,ROOM_1_FLR_3_INTERNALMASS_1,0,0.00,0.00,0.00,0,3.05,13.11,5.95,0.33,0,No,No
Surface Convection Parameters,ROOM_2_FLR_3_WALL_NORTH,0,670.01,217.46,19.20,0,3.05,13.11,5.95,0.33,3,No,No
Surface Convection Parameters,ROOM_2_FLR_3_WALL_NORTH_WINDOW,0,670.01,217.46,19.20,0,3.05,13.11,5.95,0.33,2,No,No
Surface Convection Parameters,ROOM_2_FLR_3_WALL_WEST,0,194.63,84.12,19.20,0,3.05,13.11,5.95,0.33,3,No,No
Surface Convection Parameters,ROOM_2_FLR_3_WALL_WEST_WINDOW,0,194.63,84.12,19.20,0,3.05,13.11,5.95,0.33,2,No,No
Surface Convection Parameters,ROOM_2_FLR_3_WALL_EAST,0,0.00,0.00,0.00,0,3.05,13.11,5.95,0.33,0,No,No
Surface Convection Parameters,ROOM_2_FLR_3_WALL_SOUTH,0,0.00,0.00,0.00,0,3.05,13.11,5.95,0.33,0,No,No
Surface Convection Parameters,ROOM_2_FLR_3_FLOOR,0,0.00,0.00,0.00,0,3.05,13.11,5.95,0.33,0,No,No
Surface Convection Parameters,ROOM_2_FLR_3_CEILING,0,0.00,0.00,0.00,0,3.05,13.11,5.95,0.33,0,No,No
Surface Convection Parameters,ROOM_2_FLR_3_INTERNALMASS_1,0,0.00,0.00,0.00,0,3.05,13.11,5.95,0.33,0,No,No
Surface Convection Parameters,ROOM_3_MULT19_FLR_3_WALL_SOUTH,0,506.51,211.91,19.20,0,3.05,3.66,4.73,0.33,3,No,No
Surface Convection Parameters,ROOM_3_MULT19_FLR_3_WALL_SOUTH_WINDOW,0,506.51,211.91,19.20,0,3.05,3.66,4.73,0.33,2,No,No
Surface Convection Parameters,ROOM_3_MULT19_FLR_3_WALL_NORTH,0,0.00,0.00,0.00,0,3.05,3.66,4.73,0.33,0,No,No
Surface Convection Parameters,ROOM_3_MULT19_FLR_3_WALL_EAST,0,0.00,0.00,0.00,0,3.05,3.66,4.73,0.33,0,No,No
Surface Convection Parameters,ROOM_3_MULT19_FLR_3_WALL_WEST,0,0.00,0.00,0.00,0,3.05,3.66,4.73,0.33,0,No,No
Surface Convection Parameters,ROOM_3_MULT19_FLR_3_FLOOR,0,0.00,0.00,0.00,0,3.05,3.66,4.73,0.33,0,No,No
Surface Convection Parameters,ROOM_3_MULT19_FLR_3_CEILING,0,0.00,0.00,0.00,0,3.05,3.66,4.73,0.33,0,No,No
Surface Convection Parameters,ROOM_3_MULT19_FLR_3_INTERNALMASS_1,0,0.00,0.00,0.00,0,3.05,3.66,4.73,0.33,0,No,No
Surface Convection Parameters,ROOM_4_MULT19_FLR_3_WALL_NORTH,0,670.01,217.46,19.20,0,3.05,3.66,4.73,0.33,3,No,No
Surface Convection Parameters,ROOM_4_MULT19_FLR_3_WALL_NORTH_WINDOW,0,670.01,217.46,19.20,0,3.05,3.66,4.73,0.33,2,No,No
Surface Convection Parameters,ROOM_4_MULT19_FLR_3_WALL_EAST,0,0.00,0.00,0.00,0,3.05,3.66,4.73,0.33,0,No,No
Surface Convection Parameters,ROOM_4_MULT19_FLR_3_WALL_SOUTH,0,0.00,0.00,0.00,0,3.05,3.66,4.73,0.33,0,No,No
Surface Convection Parameters,ROOM_4_MULT19_FLR_3_WALL_WEST,0,0.00,0.00,0.00,0,3.05,3.66,4.73,0.33,0,No,No
Surface Convection Parameters,ROOM_4_MULT19_FLR_3_FLOOR,0,0.00,0.00,0.00,0,3.05,3.66,4.73,0.33,0,No,No
Surface Convection Parameters,ROOM_4_MULT19_FLR_3_CEILING,0,0.00,0.00,0.00,0,3.05,3.66,4.73,0.33,0,No,No
Surface Convection Parameters,ROOM_4_MULT19_FLR_3_INTERNALMASS_1,0,0.00,0.00,0.00,0,3.05,3.66,4.73,0.33,0,No,No
Surface Convection Parameters,ROOM_5_FLR_3_WALL_EAST,0,194.63,217.46,19.20,0,3.05,13.11,5.95,0.33,3,No,No
Surface Convection Parameters,ROOM_5_FLR_3_WALL_EAST_WINDOW,0,194.63,217.46,19.20,0,3.05,13.11,5.95,0.33,2,No,No
Surface Convection Parameters,ROOM_5_FLR_3_WALL_SOUTH,0,506.51,211.91,19.20,0,3.05,13.11,5.95,0.33,3,No,No
Surface Convection Parameters,ROOM_5_FLR_3_WALL_SOUTH_WINDOW,0,506.51,211.91,19.20,0,3.05,13.11,5.95,0.33,2,No,No
Surface Convection Parameters,ROOM_5_FLR_3_WALL_NORTH,0,0.00,0.00,0.00,0,3.05,13.11,5.95,0.33,0,No,No
Surface Convection Parameters,ROOM_5_FLR_3_WALL_WEST,0,0.00,0.00,0.00,0,3.05,13.11,5.95,0.33,0,No,No
Surface Convection Parameters,ROOM_5_FLR_3_FLOOR,0,0.00,0.00,0.00,0,3.05,13.11,5.95,0.33,0,No,No
Surface Convection Parameters,ROOM_5_FLR_3_CEILING,0,0.00,0.00,0.00,0,3.05,13.11,5.95,0.33,0,No,No
Surface Convection Parameters,ROOM_5_FLR_3_INTERNALMASS_1,0,0.00,0.00,0.00,0,3.05,13.11,5.95,0.33,0,No,No
Surface Convection Parameters,ROOM_6_FLR_3_WALL_NORTH,0,670.01,217.46,19.20,0,3.05,13.11,5.95,0.33,3,No,No
Surface Convection Parameters,ROOM_6_FLR_3_WALL_NORTH_WINDOW,0,670.01,217.46,19.20,0,3.05,13.11,5.95,0.33,2,No,No
Surface Convection Parameters,ROOM_6_FLR_3_WALL_EAST,0,194.63,217.46,19.20,0,3.05,13.11,5.95,0.33,3,No,No
Surface Convection Parameters,ROOM_6_FLR_3_WALL_EAST_WINDOW,0,194.63,217.46,19.20,0,3.05,13.11,5.95,0.33,2,No,No
Surface Convection Parameters,ROOM_6_FLR_3_WALL_SOUTH,0,0.00,0.00,0.00,0,3.05,13.11,5.95,0.33,0,No,No
Surface Convection Parameters,ROOM_6_FLR_3_WALL_WEST,0,0.00,0.00,0.00,0,3.05,13.11,5.95,0.33,0,No,No
Surface Convection Parameters,ROOM_6_FLR_3_FLOOR,0,0.00,0.00,0.00,0,3.05,13.11,5.95,0.33,0,No,No
Surface Convection Parameters,ROOM_6_FLR_3_CEILING,0,0.00,0.00,0.00,0,3.05,13.11,5.95,0.33,0,No,No
Surface Convection Parameters,ROOM_6_FLR_3_INTERNALMASS_1,0,0.00,0.00,0.00,0,3.05,13.11,5.95,0.33,0,No,No
Surface Convection Parameters,CORRIDOR_FLR_3_WALL_1_NORTH,0,670.01,217.46,19.20,0,3.05,15.85,8.24,0.33,3,No,No
Surface Convection Parameters,CORRIDOR_FLR_3_WALL_1_NORTH_WINDOW,0,670.01,217.46,19.20,0,3.05,15.85,8.24,0.33,2,No,No
Surface Convection Parameters,CORRIDOR_FLR_3_WALL_2_NORTH,0,670.01,217.46,19.20,0,3.05,15.85,8.24,0.33,3,No,No
Surface Convection Parameters,CORRIDOR_FLR_3_WALL_2_NORTH_WINDOW,0,670.01,217.46,19.20,0,3.05,15.85,8.24,0.33,2,No,No
Surface Convection Parameters,CORRIDOR_FLR_3_WALL_1_SOUTH,0,506.51,211.91,19.20,0,3.05,15.85,8.24,0.33,3,No,No
Surface Convection Parameters,CORRIDOR_FLR_3_WALL_1_SOUTH_WINDOW,0,506.51,211.91,19.20,0,3.05,15.85,8.24,0.33,2,No,No
Surface Convection Parameters,CORRIDOR_FLR_3_WALL_2_SOUTH,0,506.51,211.91,19.20,0,3.05,15.85,8.24,0.33,3,No,No
Surface Convection Parameters,CORRIDOR_FLR_3_WALL_2_SOUTH_WINDOW,0,506.51,211.91,19.20,0,3.05,15.85,8.24,0.33,2,No,No
Surface Convection Parameters,CORRIDOR_FLR_3_WALL_3_NORTH,0,0.00,0.00,0.00,0,3.05,15.85,8.24,0.33,0,No,No
Surface Convection Parameters,CORRIDOR_FLR_3_WALL_1_EAST,0,0.00,0.00,0.00,0,3.05,15.85,8.24,0.33,0,No,No
Surface Convection Parameters,CORRIDOR_FLR_3_WALL_2_EAST,0,0.00,0.00,0.00,0,3.05,15.85,8.24,0.33,0,No,No
Surface Convection Parameters,CORRIDOR_FLR_3_WALL_3_EAST,0,0.00,0.00,0.00,0,3.05,15.85,8.24,0.33,0,No,No
Surface Convection Parameters,CORRIDOR_FLR_3_WALL_4_EAST,0,0.00,0.00,0.00,0,3.05,15.85,8.24,0.33,0,No,No
Surface Convection Parameters,CORRIDOR_FLR_3_WALL_3_SOUTH,0,0.00,0.00,0.00,0,3.05,15.85,8.24,0.33,0,No,No
Surface Convection Parameters,CORRIDOR_FLR_3_WALL_1_WEST,0,0.00,0.00,0.00,0,3.05,15.85,8.24,0.33,0,No,No
Surface Convection Parameters,CORRIDOR_FLR_3_WALL_2_WEST,0,0.00,0.00,0.00,0,3.05,15.85,8.24,0.33,0,No,No
Surface Convection Parameters,CORRIDOR_FLR_3_WALL_3_WEST,0,0.00,0.00,0.00,0,3.05,15.85,8.24,0.33,0,No,No
Surface Convection Parameters,CORRIDOR_FLR_3_WALL_4_WEST,0,0.00,0.00,0.00,0,3.05,15.85,8.24,0.33,0,No,No
Surface Convection Parameters,CORRIDOR_FLR_3_FLOOR_1,0,0.00,0.00,0.00,0,3.05,15.85,8.24,0.33,0,No,No
Surface Convection Parameters,CORRIDOR_FLR_3_FLOOR_2,0,0.00,0.00,0.00,0,3.05,15.85,8.24,0.33,0,No,No
Surface Convection Parameters,CORRIDOR_FLR_3_FLOOR_3,0,0.00,0.00,0.00,0,3.05,15.85,8.24,0.33,0,No,No
Surface Convection Parameters,CORRIDOR_FLR_3_CEILING_1,0,0.00,0.00,0.00,0,3.05,15.85,8.24,0.33,0,No,No
Surface Convection Parameters,CORRIDOR_FLR_3_CEILING_2,0,0.00,0.00,0.00,0,3.05,15.85,8.24,0.33,0,No,No
Surface Convection Parameters,CORRIDOR_FLR_3_CEILING_3,0,0.00,0.00,0.00,0,3.05,15.85,8.24,0.33,0,No,No
Surface Convection Parameters,CORRIDOR_FLR_3_INTERNALMASS_1,0,0.00,0.00,0.00,0,3.05,15.85,8.24,0.33,0,No,No
Surface Convection Parameters,ROOM_1_FLR_6_WALL_SOUTH,0,506.51,211.91,19.20,0,3.05,13.11,5.95,0.33,3,No,No
Surface Convection Parameters,ROOM_1_FLR_6_WALL_SOUTH_WINDOW,0,506.51,211.91,19.20,0,3.05,13.11,5.95,0.33,2,No,No
Surface Convection Parameters,ROOM_1_FLR_6_WALL_WEST,0,194.63,84.12,19.20,0,3.05,13.11,5.95,0.33,3,No,No
Surface Convection Parameters,ROOM_1_FLR_6_WALL_WEST_WINDOW,0,194.63,84.12,19.20,0,3.05,13.11,5.95,0.33,2,No,No
Surface Convection Parameters,ROOM_1_FLR_6_WALL_NORTH,0,0.00,0.00,0.00,0,3.05,13.11,5.95,0.33,0,No,No
Surface Convection Parameters,ROOM_1_FLR_6_WALL_EAST,0,0.00,0.00,0.00,0,3.05,13.11,5.95,0.33,0,No,No
Surface Convection Parameters,ROOM_1_FLR_6_FLOOR,0,0.00,0.00,0.00,0,3.05,13.11,5.95,0.33,0,No,No
Surface Convection Parameters,ROOM_1_FLR_6_CEILING,0,1782.60,399.29,0.00,0,3.05,13.11,5.95,0.33,0,No,No
Surface Convection Parameters,ROOM_1_FLR_6_INTERNALMASS_1,0,0.00,0.00,0.00,0,3.05,13.11,5.95,0.33,0,No,No
Surface Convection Parameters,ROOM_2_FLR_6_WALL_NORTH,0,670.01,217.46,19.20,0,3.05,13.11,5.95,0.33,3,No,No
Surface Convection Parameters,ROOM_2_FLR_6_WALL_NORTH_WINDOW,0,670.01,217.46,19.20,0,3.05,13.11,5.95,0.33,2,No,No
Surface Convection Parameters,ROOM_2_FLR_6_WALL_WEST,0,194.63,84.12,19.20,0,3.05,13.11,5.95,0.33,3,No,No
Surface Convection Parameters,ROOM_2_FLR_6_WALL_WEST_WINDOW,0,194.63,84.12,19.20,0,3.05,13.11,5.95,0.33,2,No,No
Surface Convection Parameters,ROOM_2_FLR_6_WALL_EAST,0,0.00,0.00,0.00,0,3.05,13.11,5.95,0.33,0,No,No
Surface Convection Parameters,ROOM_2_FLR_6_WALL_SOUTH,0,0.00,0.00,0.00,0,3.05,13.11,5.95,0.33,0,No,No
Surface Convection Parameters,ROOM_2_FLR_6_FLOOR,0,0.00,0.00,0.00,0,3.05,13.11,5.95,0.33,0,No,No
Surface Convection Parameters,ROOM_2_FLR_6_CEILING,0,1782.60,399.29,0.00,0,3.05,13.11,5.95,0.33,0,No,No
Surface Convection Parameters,ROOM_2_FLR_6_INTERNALMASS_1,0,0.00,0.00,0.00,0,3.05,13.11,5.95,0.33,0,No,No
Surface Convection Parameters,ROOM_3_MULT9_FLR_6_WALL_SOUTH,0,506.51,211.91,19.20,0,3.05,6.71,4.73,0.33,3,No,No
Surface Convection Parameters,ROOM_3_MULT9_FLR_6_WALL_SOUTH_WINDOW,0,506.51,211.91,19.20,0,3.05,6.71,4.73,0.33,2,No,No
Surface Convection Parameters,ROOM_3_MULT9_FLR_6_WALL_NORTH,0,0.00,0.00,0.00,0,3.05,6.71,4.73,0.33,0,No,No
Surface Convection Parameters,ROOM_3_MULT9_FLR_6_WALL_EAST,0,0.00,0.00,0.00,0,3.05,6.71,4.73,0.33,0,No,No
Surface Convection Parameters,ROOM_3_MULT9_FLR_6_WALL_WEST,0,0.00,0.00,0.00,0,3.05,6.71,4.73,0.33,0,No,No
Surface Convection Parameters,ROOM_3_MULT9_FLR_6_FLOOR,0,0.00,0.00,0.00,0,3.05,6.71,4.73,0.33,0,No,No
Surface Convection Parameters,ROOM_3_MULT9_FLR_6_CEILING,0,1782.60,399.29,0.00,0,3.05,6.71,4.73,0.33,0,No,No
Surface Convection Parameters,ROOM_3_MULT9_FLR_6_INTERNALMASS_1,0,0.00,0.00,0.00,0,3.05,6.71,4.73,0.33,0,No,No
Surface Convection Parameters,BANQUET_FLR_6_WALL_NORTH,0,670.01,217.46,19.20,0,3.05,32.00,15.66,0.33,3,No,No
Surface Convection Parameters,BANQUET_FLR_6_WALL_NORTH_WINDOW,0,670.01,217.46,19.20,0,3.05,32.00,15.66,0.33,2,No,No
Surface Convection Parameters,BANQUET_FLR_6_WALL_EAST,0,0.00,0.00,0.00,0,3.05,32.00,15.66,0.33,0,No,No
Surface Convection Parameters,BANQUET_FLR_6_WALL_SOUTH,0,0.00,0.00,0.00,0,3.05,32.00,15.66,0.33,0,No,No
Surface Convection Parameters,BANQUET_FLR_6_WALL_WEST,0,0.00,0.00,0.00,0,3.05,32.00,15.66,0.33,0,No,No
Surface Convection Parameters,BANQUET_FLR_6_FLOOR,0,0.00,0.00,0.00,0,3.05,32.00,15.66,0.33,0,No,No
Surface Convection Parameters,BANQUET_FLR_6_CEILING,0,1782.60,399.29,0.00,0,3.05,32.00,15.66,0.33,0,No,No
Surface Convection Parameters,BANQUET_FLR_6_INTERNALMASS_1,0,0.00,0.00,0.00,0,3.05,32.00,15.66,0.33,0,No,No
[...]
HeatTransfer Surface,ROOM_3_MULT9_FLR_6_WALL_SOUTH_WINDOW,Window,ROOM_3_MULT9_FLR_6_WALL_SOUTH,Window5 Detailed Fenestration,RESWINDOW_U_0.248_SHGC_0.21,N/A,1.408,No,6.74,6.74,6.74,180.00,90.00,5.53,1.22,0.00,ExternalEnvironment,DOE-2,ASHRAETARP,SunExposed,WindExposed,0.50,0.50,0.50,0.50,4
HeatTransfer Surface,ROOM_3_MULT9_FLR_6_WALL_NORTH,Wall,,CTF - ConductionTransferFunction,INT_WALL,6.299,3.242,,20.44,20.44,20.44,0.00,90.00,6.71,3.05,0.00,ROOM_3_MULT9_FLR_6_WALL_NORTH,Other/Same Surface Int Conv,ASHRAETARP,NoSun,NoWind,0.50,0.50,0.50,0.50,4
HeatTransfer Surface,ROOM_3_MULT9_FLR_6_WALL_EAST,Wall,,CTF - ConductionTransferFunction,INT_WALL,6.299,3.242,,11.15,11.15,11.15,90.00,90.00,3.66,3.05,0.00,ROOM_3_MULT9_FLR_6_WALL_EAST,Other/Same Surface Int Conv,ASHRAETARP,NoSun,NoWind,0.50,0.50,0.50,0.50,4
HeatTransfer Surface,ROOM_3_MULT9_FLR_6_WALL_WEST,Wall,,CTF - ConductionTransferFunction,INT_WALL,6.299,3.242,,11.15,11.15,11.15,270.00,90.00,3.66,3.05,0.00,ROOM_3_MULT9_FLR_6_WALL_WEST,Other/Same Surface Int Conv,ASHRAETARP,NoSun,NoWind,0.50,0.50,0.50,0.50,4
HeatTransfer Surface,ROOM_3_MULT9_FLR_6_FLOOR,Floor,,CTF - ConductionTransferFunction,NONRES_FLOOR,0.228,0.216,,24.53,24.53,24.53,0.00,180.00,6.71,3.66,0.00,ROOM_3_MULT9_FLR_6_FLOOR,Other/Same Surface Int Conv,ASHRAETARP,NoSun,NoWind,1.00,0.00,1.00,0.00,4
HeatTransfer Surface,ROOM_3_MULT9_FLR_6_CEILING,Roof,,CTF - ConductionTransferFunction,RES_ROOF,0.186,0.180,,24.53,24.53,24.53,180.00,0.00,6.71,3.66,0.00,ExternalEnvironment,DOE-2,ASHRAETARP,SunExposed,WindExposed,0.00,1.00,0.00,1.00,4
HeatTransfer Surface,ROOM_3_MULT9_FLR_6_INTERNALMASS_1,Internal Mass,,CTF - ConductionTransferFunction,INTERIORFURNISHINGS,0.800,0.800,,49.06,49.06,49.06,0.00,90.00,49.06,1.00,0.00,ROOM_3_MULT9_FLR_6_INTERNALMASS_1,Other/Same Surface Int Conv,ASHRAETARP,NoSun,NoWind,0.00,0.50,1.00,0.00,0
Zone Surfaces,BANQUET_FLR_6,8
HeatTransfer Surface,BANQUET_FLR_6_WALL_NORTH,Wall,,CTF - ConductionTransferFunction,NONRES_EXT_WALL_TOP,0.881,0.778,,65.36,97.55,65.36,0.00,90.00,32.00,3.05,0.00,ExternalEnvironment,DOE-2,ASHRAETARP,SunExposed,WindExposed,0.50,0.50,0.50,0.50,4
HeatTransfer Surface,BANQUET_FLR_6_WALL_NORTH_WINDOW,Window,BANQUET_FLR_6_WALL_NORTH,Window5 Detailed Fenestration,NONRESWINDOW_U_0.248_SHGC_0.21,N/A,1.408,No,32.19,32.19,32.19,0.00,90.00,26.40,1.22,0.00,ExternalEnvironment,DOE-2,ASHRAETARP,SunExposed,WindExposed,0.50,0.50,0.50,0.50,4
HeatTransfer Surface,BANQUET_FLR_6_WALL_EAST,Wall,,CTF - ConductionTransferFunction,INT_WALL,6.299,3.242,,31.59,31.59,31.59,90.00,90.00,10.36,3.05,0.00,CORRIDOR_FLR_6_WALL_3_WEST,Other/Same Surface Int Conv,ASHRAETARP,NoSun,NoWind,0.50,0.50,0.50,0.50,4
HeatTransfer Surface,BANQUET_FLR_6_WALL_SOUTH,Wall,,CTF - ConductionTransferFunction,INT_WALL,6.299,3.242,,97.55,97.55,97.55,180.00,90.00,32.00,3.05,0.00,CORRIDOR_FLR_6_WALL_3_NORTH,Other/Same Surface Int Conv,ASHRAETARP,NoSun,NoWind,0.50,0.50,0.50,0.50,4
HeatTransfer Surface,BANQUET_FLR_6_WALL_WEST,Wall,,CTF - ConductionTransferFunction,INT_WALL,6.299,3.242,,31.59,31.59,31.59,270.00,90.00,10.36,3.05,0.00,CORRIDOR_FLR_6_WALL_1_EAST,Other/Same Surface Int Conv,ASHRAETARP,NoSun,NoWind,0.50,0.50,0.50,0.50,4
HeatTransfer Surface,BANQUET_FLR_6_FLOOR,Floor,,CTF - ConductionTransferFunction,NONRES_FLOOR,0.228,0.216,,331.66,331.66,331.66,0.00,180.00,32.00,10.36,0.00,BANQUET_FLR_6_FLOOR,Other/Same Surface Int Conv,ASHRAETARP,NoSun,NoWind,1.00,0.00,1.00,0.00,4
HeatTransfer Surface,BANQUET_FLR_6_CEILING,Roof,,CTF - ConductionTransferFunction,NONRES_ROOF,0.186,0.180,,331.66,331.66,331.66,180.00,0.00,32.00,10.36,0.00,ExternalEnvironment,DOE-2,ASHRAETARP,SunExposed,WindExposed,0.00,1.00,0.00,1.00,4
HeatTransfer Surface,BANQUET_FLR_6_INTERNALMASS_1,Internal Mass,,CTF - ConductionTransferFunction,INTERIORFURNISHINGS,0.800,0.800,,663.31,663.31,663.31,0.00,90.00,663.31,1.00,0.00,BANQUET_FLR_6_INTERNALMASS_1,Other/Same Surface Int Conv,ASHRAETARP,NoSun,NoWind,0.00,0.50,1.00,0.00,0
Zone Surfaces,DINING_FLR_6,8
HeatTransfer Surface,DINING_FLR_6_WALL_NORTH,Wall,,CTF - ConductionTransferFunction,NONRES_EXT_WALL_TOP,0.881,0.778,,65.36,97.55,65.36,0.00,90.00,32.00,3.05,0.00,ExternalEnvironment,DOE-2,ASHRAETARP,SunExposed,WindExposed,0.50,0.50,0.50,0.50,4
HeatTransfer Surface,DINING_FLR_6_WALL_NORTH_WINDOW,Window,DINING_FLR_6_WALL_NORTH,Window5 Detailed Fenestration,NONRESWINDOW_U_0.248_SHGC_0.21,N/A,1.408,No,32.19,32.19,32.19,0.00,90.00,26.40,1.22,0.00,ExternalEnvironment,DOE-2,ASHRAETARP,SunExposed,WindExposed,0.50,0.50,0.50,0.50,4
HeatTransfer Surface,DINING_FLR_6_WALL_EAST,Wall,,CTF - ConductionTransferFunction,INT_WALL,6.299,3.242,,31.59,31.59,31.59,90.00,90.00,10.36,3.05,0.00,KITCHEN_FLR_6_WALL_2_WEST,Other/Same Surface Int Conv,ASHRAETARP,NoSun,NoWind,0.50,0.50,0.50,0.50,4
HeatTransfer Surface,DINING_FLR_6_WALL_SOUTH,Wall,,CTF - ConductionTransferFunction,INT_WALL,6.299,3.242,,97.55,97.55,97.55,180.00,90.00,32.00,3.05,0.00,DINING_FLR_6_WALL_SOUTH,Other/Same Surface Int Conv,ASHRAETARP,NoSun,NoWind,0.50,0.50,0.50,0.50,4
HeatTransfer Surface,DINING_FLR_6_WALL_WEST,Wall,,CTF - ConductionTransferFunction,INT_WALL,6.299,3.242,,31.59,31.59,31.59,270.00,90.00,10.36,3.05,0.00,CORRIDOR_FLR_6_WALL_2_EAST,Other/Same Surface Int Conv,ASHRAETARP,NoSun,NoWind,0.50,0.50,0.50,0.50,4
HeatTransfer Surface,DINING_FLR_6_FLOOR,Floor,,CTF - ConductionTransferFunction,NONRES_FLOOR,0.228,0.216,,331.66,331.66,331.66,0.00,180.00,32.00,10.36,0.00,DINING_FLR_6_FLOOR,Other/Same Surface Int Conv,ASHRAETARP,NoSun,NoWind,1.00,0.00,1.00,0.00,4
HeatTransfer Surface,DINING_FLR_6_CEILING,Roof,,CTF - ConductionTransferFunction,NONRES_ROOF,0.186,0.180,,331.66,331.66,331.66,180.00,0.00,32.00,10.36,0.00,ExternalEnvironment,DOE-2,ASHRAETARP,SunExposed,WindExposed,0.00,1.00,0.00,1.00,4
HeatTransfer Surface,DINING_FLR_6_INTERNALMASS_1,Internal Mass,,CTF - ConductionTransferFunction,INTERIORFURNISHINGS,0.800,0.800,,663.31,663.31,663.31,0.00,90.00,663.31,1.00,0.00,DINING_FLR_6_INTERNALMASS_1,Other/Same Surface Int Conv,ASHRAETARP,NoSun,NoWind,0.00,0.50,1.00,0.00,0
Zone Surfaces,KITCHEN_FLR_6,12
HeatTransfer Surface,KITCHEN_FLR_6_WALL_NORTH,Wall,,CTF - ConductionTransferFunction,NONRES_EXT_WALL_TOP,0.881,0.778,,16.77,21.37,16.77,0.00,90.00,7.01,3.05,0.00,ExternalEnvironment,DOE-2,ASHRAETARP,SunExposed,WindExposed,0.50,0.50,0.50,0.50,4
HeatTransfer Surface,KITCHEN_FLR_6_WALL_NORTH_WINDOW,Window,KITCHEN_FLR_6_WALL_NORTH,Window5 Detailed Fenestration,NONRESWINDOW_U_0.248_SHGC_0.21,N/A,1.408,No,4.60,4.60,4.60,0.00,90.00,3.77,1.22,0.00,ExternalEnvironment,DOE-2,ASHRAETARP,SunExposed,WindExposed,0.50,0.50,0.50,0.50,4
HeatTransfer Surface,KITCHEN_FLR_6_WALL_EAST,Wall,,CTF - ConductionTransferFunction,NONRES_EXT_WALL_TOP,0.881,0.778,,34.86,52.03,34.86,90.00,90.00,17.07,3.05,0.00,ExternalEnvironment,DOE-2,ASHRAETARP,SunExposed,WindExposed,0.50,0.50,0.50,0.50,4
HeatTransfer Surface,KITCHEN_FLR_6_WALL_EAST_WINDOW,Window,KITCHEN_FLR_6_WALL_EAST,Window5 Detailed Fenestration,NONRESWINDOW_U_0.248_SHGC_0.21,N/A,1.408,No,17.17,17.17,17.17,90.00,90.00,14.08,1.22,0.00,ExternalEnvironment,DOE-2,ASHRAETARP,SunExposed,WindExposed,0.50,0.50,0.50,0.50,4
HeatTransfer Surface,KITCHEN_FLR_6_WALL_1_SOUTH,Wall,,CTF - ConductionTransferFunction,NONRES_EXT_WALL_TOP,0.881,0.778,,9.34,13.94,9.34,180.00,90.00,4.57,3.05,0.00,ExternalEnvironment,DOE-2,ASHRAETARP,SunExposed,WindExposed,0.50,0.50,0.50,0.50,4
HeatTransfer Surface,KITCHEN_FLR_6_WALL_1_SOUTH_WINDOW,Window,KITCHEN_FLR_6_WALL_1_SOUTH,Window5 Detailed Fenestration,NONRESWINDOW_U_0.248_SHGC_0.21,N/A,1.408,No,4.60,4.60,4.60,180.00,90.00,3.77,1.22,0.00,ExternalEnvironment,DOE-2,ASHRAETARP,SunExposed,WindExposed,0.50,0.50,0.50,0.50,4
HeatTransfer Surface,KITCHEN_FLR_6_WALL_2_SOUTH,Wall,,CTF - ConductionTransferFunction,INT_WALL,6.299,3.242,,7.43,7.43,7.43,180.00,90.00,2.44,3.05,0.00,KITCHEN_FLR_6_WALL_2_SOUTH,Other/Same Surface Int Conv,ASHRAETARP,NoSun,NoWind,0.50,0.50,0.50,0.50,4
HeatTransfer Surface,KITCHEN_FLR_6_WALL_1_WEST,Wall,,CTF - ConductionTransferFunction,INT_WALL,6.299,3.242,,20.44,20.44,20.44,270.00,90.00,6.71,3.05,0.00,CORRIDOR_FLR_6_WALL_3_EAST,Other/Same Surface Int Conv,ASHRAETARP,NoSun,NoWind,0.50,0.50,0.50,0.50,4
HeatTransfer Surface,KITCHEN_FLR_6_WALL_2_WEST,Wall,,CTF - ConductionTransferFunction,INT_WALL,6.299,3.242,,31.59,31.59,31.59,270.00,90.00,10.36,3.05,0.00,DINING_FLR_6_WALL_EAST,Other/Same Surface Int Conv,ASHRAETARP,NoSun,NoWind,0.50,0.50,0.50,0.50,4
HeatTransfer Surface,KITCHEN_FLR_6_FLOOR,Floor,,CTF - ConductionTransferFunction,NONRES_FLOOR,0.228,0.216,,103.30,103.30,103.30,180.00,180.00,10.16,10.16,0.00,KITCHEN_FLR_6_FLOOR,Other/Same Surface Int Conv,ASHRAETARP,NoSun,NoWind,1.00,0.00,1.00,0.00,6
HeatTransfer Surface,KITCHEN_FLR_6_CEILING,Roof,,CTF - ConductionTransferFunction,NONRES_ROOF,0.186,0.180,,103.30,103.30,103.30,270.00,0.00,10.16,10.16,0.00,ExternalEnvironment,DOE-2,ASHRAETARP,SunExposed,WindExposed,0.00,1.00,0.00,1.00,6
HeatTransfer Surface,KITCHEN_FLR_6_INTERNALMASS_1,Internal Mass,,CTF - ConductionTransferFunction,INTERIORFURNISHINGS,0.800,0.800,,206.61,206.61,206.61,0.00,90.00,206.61,1.00,0.00,KITCHEN_FLR_6_INTERNALMASS_1,Other/Same Surface Int Conv,ASHRAETARP,NoSun,NoWind,0.00,0.50,1.00,0.00,0
Zone Surfaces,CORRIDOR_FLR_6,19
HeatTransfer Surface,CORRIDOR_FLR_6_WALL_1_NORTH,Wall,,CTF - ConductionTransferFunction,NONRES_EXT_WALL_TOP,0.881,0.778,,11.83,17.65,11.83,0.00,90.00,5.79,3.05,0.00,ExternalEnvironment,DOE-2,ASHRAETARP,SunExposed,WindExposed,0.50,0.50,0.50,0.50,4
HeatTransfer Surface,CORRIDOR_FLR_6_WALL_1_NORTH_WINDOW,Window,CORRIDOR_FLR_6_WALL_1_NORTH,Window5 Detailed Fenestration,NONRESWINDOW_U_0.248_SHGC_0.21,N/A,1.408,No,5.82,5.82,5.82,0.00,90.00,4.78,1.22,0.00,ExternalEnvironment,DOE-2,ASHRAETARP,SunExposed,WindExposed,0.50,0.50,0.50,0.50,4
HeatTransfer Surface,CORRIDOR_FLR_6_WALL_2_NORTH,Wall,,CTF - ConductionTransferFunction,NONRES_EXT_WALL_TOP,0.881,0.778,,10.58,15.79,10.58,0.00,90.00,5.18,3.05,0.00,ExternalEnvironment,DOE-2,ASHRAETARP,SunExposed,WindExposed,0.50,0.50,0.50,0.50,4
HeatTransfer Surface,CORRIDOR_FLR_6_WALL_2_NORTH_WINDOW,Window,CORRIDOR_FLR_6_WALL_2_NORTH,Window5 Detailed Fenestration,NONRESWINDOW_U_0.248_SHGC_0.21,N/A,1.408,No,5.21,5.21,5.21,0.00,90.00,4.27,1.22,0.00,ExternalEnvironment,DOE-2,ASHRAETARP,SunExposed,WindExposed,0.50,0.50,0.50,0.50,4
HeatTransfer Surface,CORRIDOR_FLR_6_WALL_2_SOUTH,Wall,,CTF - ConductionTransferFunction,NONRES_EXT_WALL_TOP,0.881,0.778,,34.86,52.03,34.86,180.00,90.00,17.07,3.05,0.00,ExternalEnvironment,DOE-2,ASHRAETARP,SunExposed,WindExposed,0.50,0.50,0.50,0.50,4
HeatTransfer Surface,CORRIDOR_FLR_6_WALL_2_SOUTH_WINDOW,Window,CORRIDOR_FLR_6_WALL_2_SOUTH,Window5 Detailed Fenestration,NONRESWINDOW_U_0.248_SHGC_0.21,N/A,1.408,No,17.17,17.17,17.17,180.00,90.00,14.08,1.22,0.00,ExternalEnvironment,DOE-2,ASHRAETARP,SunExposed,WindExposed,0.50,0.50,0.50,0.50,4
HeatTransfer Surface,CORRIDOR_FLR_6_WALL_3_NORTH,Wall,,CTF - ConductionTransferFunction,INT_WALL,6.299,3.242,,97.55,97.55,97.55,0.00,90.00,32.00,3.05,0.00,BANQUET_FLR_6_WALL_SOUTH,Other/Same Surface Int Conv,ASHRAETARP,NoSun,NoWind,0.50,0.50,0.50,0.50,4
HeatTransfer Surface,CORRIDOR_FLR_6_WALL_4_NORTH,Wall,,CTF - ConductionTransferFunction,INT_WALL,6.299,3.242,,104.98,104.98,104.98,0.00,90.00,34.44,3.05,0.00,CORRIDOR_FLR_6_WALL_4_NORTH,Other/Same Surface Int Conv,ASHRAETARP,NoSun,NoWind,0.50,0.50,0.50,0.50,4
HeatTransfer Surface,CORRIDOR_FLR_6_WALL_1_SOUTH,Wall,,CTF - ConductionTransferFunction,INT_WALL,6.299,3.242,,183.95,183.95,183.95,180.00,90.00,60.35,3.05,0.00,CORRIDOR_FLR_6_WALL_1_SOUTH,Other/Same Surface Int Conv,ASHRAETARP,NoSun,NoWind,0.50,0.50,0.50,0.50,4
HeatTransfer Surface,CORRIDOR_FLR_6_WALL_1_WEST,Wall,,CTF - ConductionTransferFunction,INT_WALL,6.299,3.242,,11.15,11.15,11.15,270.00,90.00,3.66,3.05,0.00,CORRIDOR_FLR_6_WALL_1_WEST,Other/Same Surface Int Conv,ASHRAETARP,NoSun,NoWind,0.50,0.50,0.50,0.50,4
HeatTransfer Surface,CORRIDOR_FLR_6_WALL_2_WEST,Wall,,CTF - ConductionTransferFunction,INT_WALL,6.299,3.242,,40.88,40.88,40.88,270.00,90.00,13.41,3.05,0.00,CORRIDOR_FLR_6_WALL_2_WEST,Other/Same Surface Int Conv,ASHRAETARP,NoSun,NoWind,0.50,0.50,0.50,0.50,4
HeatTransfer Surface,CORRIDOR_FLR_6_WALL_3_WEST,Wall,,CTF - ConductionTransferFunction,INT_WALL,6.299,3.242,,31.59,31.59,31.59,270.00,90.00,10.36,3.05,0.00,BANQUET_FLR_6_WALL_EAST,Other/Same Surface Int Conv,ASHRAETARP,NoSun,NoWind,0.50,0.50,0.50,0.50,4
HeatTransfer Surface,CORRIDOR_FLR_6_WALL_1_EAST,Wall,,CTF - ConductionTransferFunction,INT_WALL,6.299,3.242,,31.59,31.59,31.59,90.00,90.00,10.36,3.05,0.00,BANQUET_FLR_6_WALL_WEST,Other/Same Surface Int Conv,ASHRAETARP,NoSun,NoWind,0.50,0.50,0.50,0.50,4
HeatTransfer Surface,CORRIDOR_FLR_6_WALL_2_EAST,Wall,,CTF - ConductionTransferFunction,INT_WALL,6.299,3.242,,31.59,31.59,31.59,90.00,90.00,10.36,3.05,0.00,DINING_FLR_6_WALL_WEST,Other/Same Surface Int Conv,ASHRAETARP,NoSun,NoWind,0.50,0.50,0.50,0.50,4
HeatTransfer Surface,CORRIDOR_FLR_6_WALL_3_EAST,Wall,,CTF - ConductionTransferFunction,INT_WALL,6.299,3.242,,20.44,20.44,20.44,90.00,90.00,6.71,3.05,0.00,KITCHEN_FLR_6_WALL_1_WEST,Other/Same Surface Int Conv,ASHRAETARP,NoSun,NoWind,0.50,0.50,0.50,0.50,4
HeatTransfer Surface,CORRIDOR_FLR_6_FLOOR,Floor,,CTF - ConductionTransferFunction,NONRES_FLOOR,0.228,0.216,,412.12,412.12,412.12,180.00,180.00,20.30,20.30,0.00,CORRIDOR_FLR_6_FLOOR,Other/Same Surface Int Conv,ASHRAETARP,NoSun,NoWind,1.00,0.00,1.00,0.00,12
HeatTransfer Surface,CORRIDOR_FLR_6_CEILING_1,Roof,,CTF - ConductionTransferFunction,NONRES_ROOF,0.186,0.180,,244.71,244.71,244.71,90.00,0.00,15.64,15.64,0.00,ExternalEnvironment,DOE-2,ASHRAETARP,SunExposed,WindExposed,0.00,1.00,0.00,1.00,8
HeatTransfer Surface,CORRIDOR_FLR_6_CEILING_2,Roof,,CTF - ConductionTransferFunction,NONRES_ROOF,0.186,0.180,,167.42,167.42,167.42,270.00,0.00,12.94,12.94,0.00,ExternalEnvironment,DOE-2,ASHRAETARP,SunExposed,WindExposed,0.00,1.00,0.00,1.00,6
HeatTransfer Surface,CORRIDOR_FLR_6_INTERNALMASS_1,Internal Mass,,CTF - ConductionTransferFunction,INTERIORFURNISHINGS,0.800,0.800,,824.25,824.25,824.25,0.00,90.00,824.25,1.00,0.00,CORRIDOR_FLR_6_INTERNALMASS_1,Other/Same Surface Int Conv,ASHRAETARP,NoSun,NoWind,0.00,0.50,1.00,0.00,0
! <Environment>,Environment Name,Environment Type, Start Date, End Date, Start DayOfWeek, Duration {#days}, Source:Start DayOfWeek,  Use Daylight Saving, Use Holidays, Apply Weekend Holiday Rule,  Use Rain Values, Use Snow Values, Sky Temperature Model
! <Environment:Special Days>, Special Day Name, Special Day Type, Source, Start Date, Duration {#days}
! <Environment:Daylight Saving>, Daylight Saving Indicator, Source, Start Date, End Date
! <Environment:WarmupDays>, NumberofWarmupDays
Environment,RUNPERIOD 1,WeatherFileRunPeriod,01/01/2017,12/31/2017,Sunday,365,Use RunPeriod Specified Day,No,No,No,Yes,Yes,Clark and Allen
Environment:Daylight Saving,Yes,InputFile,03/12,11/05
Environment:Special Days,NEW YEARS DAY,Holiday,InputFile,01/01,  1
Environment:Special Days,VETERANS DAY,Holiday,InputFile,11/11,  1
Environment:Special Days,CHRISTMAS,Holiday,InputFile,12/25,  1
Environment:Special Days,INDEPENDENCE DAY,Holiday,InputFile,07/04,  1
Environment:Special Days,MLK DAY,Holiday,InputFile,01/16,  1
Environment:Special Days,PRESIDENTS DAY,Holiday,InputFile,02/20,  1
Environment:Special Days,MEMORIAL DAY,Holiday,InputFile,05/29,  1
Environment:Special Days,LABOR DAY,Holiday,InputFile,09/04,  1
Environment:Special Days,COLUMBUS DAY,Holiday,InputFile,10/09,  1
Environment:Special Days,THANKSGIVING,Holiday,InputFile,11/23,  1
Environment:WarmupDays, 13
! <Tabular Report>,Style,Unit Conversion
Tabular Report,Commaandhtml,commaandhtml
! <Warmup Convergence Information>,Zone Name,Environment Type/Name,Average Warmup Temperature Difference {deltaC},Std Dev Warmup Temperature Difference {deltaC},Max Temperature Pass/Fail Convergence,Min Temperature Pass/Fail Convergence,Average Warmup Load Difference {W},Std Dev Warmup Load Difference {W},Heating Load Pass/Fail Convergence,Cooling Load Pass/Fail Convergence
 Warmup Convergence Information,BASEMENT,RunPeriod: RUNPERIOD 1,1.5821080446E-002,2.0892856185E-002,Pass,Pass,4.6150305635E-003,1.3826239987E-002,Pass,Pass
 Warmup Convergence Information,RETAIL_1_FLR_1,RunPeriod: RUNPERIOD 1,9.7898224140E-004,8.4056032022E-004,Pass,Pass,0.1618476510,0.4476714211,Pass,Pass
 Warmup Convergence Information,RETAIL_2_FLR_1,RunPeriod: RUNPERIOD 1,1.0234541047E-003,7.3327236196E-004,Pass,Pass,3.8035559742E-002,9.0592534315E-002,Pass,Pass
 Warmup Convergence Information,MECH_FLR_1,RunPeriod: RUNPERIOD 1,5.2302661061E-004,2.1016798415E-003,Pass,Pass,7.8630644842E-002,0.2937654951,Pass,Pass
 Warmup Convergence Information,STORAGE_FLR_1,RunPeriod: RUNPERIOD 1,7.2846202788E-004,5.5574710505E-004,Pass,Pass,1.6960913314E-002,2.2926637362E-002,Pass,Pass
 Warmup Convergence Information,LAUNDRY_FLR_1,RunPeriod: RUNPERIOD 1,9.3581523225E-005,1.2354813928E-004,Pass,Pass,2.2044441838E-002,6.4284902734E-002,Pass,Pass
 Warmup Convergence Information,CAFE_FLR_1,RunPeriod: RUNPERIOD 1,3.3268035073E-003,7.6444226578E-003,Pass,Pass,5.6875633984E-002,0.1102908272,Pass,Pass
 Warmup Convergence Information,LOBBY_FLR_1,RunPeriod: RUNPERIOD 1,1.6849946847E-002,2.8832228458E-002,Pass,Pass,2.2496795126E-002,6.0976263341E-002,Pass,Pass
 Warmup Convergence Information,ROOM_1_FLR_3,RunPeriod: RUNPERIOD 1,9.0969420654E-002,0.3046633299,Pass,Pass,7.1966252798E-002,0.1700041469,Pass,Pass
 Warmup Convergence Information,ROOM_2_FLR_3,RunPeriod: RUNPERIOD 1,9.2604800592E-002,0.3236517401,Pass,Pass,9.3376168568E-002,0.3518530095,Pass,Pass
 Warmup Convergence Information,ROOM_3_MULT19_FLR_3,RunPeriod: RUNPERIOD 1,3.7532824026E-002,4.5873023829E-002,Pass,Pass,4.3567647141E-002,0.1418727632,Pass,Pass
 Warmup Convergence Information,ROOM_4_MULT19_FLR_3,RunPeriod: RUNPERIOD 1,4.2500577815E-002,0.1447482476,Pass,Pass,5.8492804837E-002,0.1611482945,Pass,Pass
 Warmup Convergence Information,ROOM_5_FLR_3,RunPeriod: RUNPERIOD 1,7.8948676656E-002,0.2687290603,Pass,Pass,6.1454871547E-002,0.1519842161,Pass,Pass
 Warmup Convergence Information,ROOM_6_FLR_3,RunPeriod: RUNPERIOD 1,8.3920455569E-002,0.2920503095,Pass,Pass,0.1127738667,0.6990281092,Pass,Pass
 Warmup Convergence Information,CORRIDOR_FLR_3,RunPeriod: RUNPERIOD 1,4.7686891668E-004,3.3441053567E-004,Pass,Pass,0.4140054481,1.0058593511,Pass,Pass
 Warmup Convergence Information,ROOM_1_FLR_6,RunPeriod: RUNPERIOD 1,9.2597808476E-002,0.3332280318,Pass,Pass,9.6008792084E-002,0.3799102354,Pass,Pass
 Warmup Convergence Information,ROOM_2_FLR_6,RunPeriod: RUNPERIOD 1,9.2652302850E-002,0.3413658320,Pass,Pass,0.1826136739,0.8985458877,Pass,Pass
 Warmup Convergence Information,ROOM_3_MULT9_FLR_6,RunPeriod: RUNPERIOD 1,8.0916589754E-002,0.2428881888,Pass,Pass,0.5042424734,5.0621728796,Pass,Pass
 Warmup Convergence Information,BANQUET_FLR_6,RunPeriod: RUNPERIOD 1,3.0958244479E-002,8.1994189748E-002,Pass,Pass,1.2439649763E-002,3.4773729710E-002,Pass,Pass
 Warmup Convergence Information,DINING_FLR_6,RunPeriod: RUNPERIOD 1,3.7152482614E-002,8.7772536307E-002,Pass,Pass,1.0509952596E-002,2.6777921943E-002,Pass,Pass
 Warmup Convergence Information,KITCHEN_FLR_6,RunPeriod: RUNPERIOD 1,1.0741216768E-003,1.9074941834E-003,Pass,Pass,2.4827662237E-002,4.8866143405E-002,Pass,Pass
 Warmup Convergence Information,CORRIDOR_FLR_6,RunPeriod: RUNPERIOD 1,4.7697692999E-004,3.2010543020E-004,Pass,Pass,0.1492442768,0.4850155073,Pass,Pass
! <Program Control Information:Threads/Parallel Sims>, Threading Supported,Maximum Number of Threads, Env Set Threads (OMP_NUM_THREADS), EP Env Set Threads (EP_OMP_NUM_THREADS), IDF Set Threads, Number of Threads Used (Interior Radiant Exchange), Number Nominal Surfaces, Number Parallel Sims
Program Control:Threads/Parallel Sims, No,1, N/A, N/A, N/A, N/A, N/A, N/A
End of Data
