Program Version,EnergyPlus, Version 24.2.0-94a887817b, YMD=2025.02.26 14:54,
   ************* Beginning Zone Sizing Calculations
   ** Warning ** Weather file location will be used rather than entered (IDF) Location object.
   **   ~~~   ** ..Location object=NEW.YORK-JOHN.F.KENNEDY.INTL.AP_NY_USA WMO=744860
   **   ~~~   ** ..Weather File Location=Shanghai Shanghai CHN CSWD WMO#=583620
   **   ~~~   ** ..due to location differences, Latitude difference=[9.26] degrees, Longitude difference=[195.25] degrees.
   **   ~~~   ** ..Time Zone difference=[13.0] hour(s), Elevation difference=[21.43] percent, [1.50] meters.
   ** Warning ** CheckUsedConstructions: There are 21 nominally unused constructions in input.
   **   ~~~   ** Each Unused construction is shown.
   ************* Construction=AIR_WALL
   ************* Construction=DROPCEILING
   ************* Construction=OPAQUEDOOR
   ************* Construction=ATTICROOFDECK
   ************* Construction=EXT_SLAB_8IN_WITH_CARPET
   ************* Construction=EXT_SLAB_8IN
   ************* Construction=EXT_SLAB_6IN_WITH_CARPET
   ************* Construction=EXT_SLAB_6IN
   ************* Construction=BASEMENT_WALL
   ************* Construction=INT_WOOD_FLOOR
   ************* Construction=EXT_SOFFIT_FLOOR
   ************* Construction=SEMIHEATED_ROOF
   ************* Construction=SEMIHEATED_EXT_WALL_GRD
   ************* Construction=SEMIHEATED_EXT_WALL_MID
   ************* Construction=SEMIHEATED_EXT_WALL_TOP
   ************* Construction=NONRES_FLOOR
   ************* Construction=RES_FLOOR
   ************* Construction=SEMIHEATED_FLOOR
   ************* Construction=NONRES_FLOOR_CEILING
   ************* Construction=RES_FLOOR_CEILING
   ************* Construction=SEMIHEATED_FLOOR_CEILING
   ** Warning ** SetUpZoneSizingArrays: Sizing for Zone="G CORRIDOR" will use Sizing:Zone specifications listed for Zone="G SW APARTMENT".
   ** Warning ** SetUpZoneSizingArrays: Sizing for Zone="M CORRIDOR" will use Sizing:Zone specifications listed for Zone="G SW APARTMENT".
   ** Warning ** SetUpZoneSizingArrays: Sizing for Zone="T CORRIDOR" will use Sizing:Zone specifications listed for Zone="G SW APARTMENT".
   ** Warning ** GeneratorController constructor ElectricLoadCenter:Generators, Availability Schedule for Generator:PVWatts 'PV_MODULE' will be be ignored (runs all the time).
   ** Warning ** Calculated design cooling load for zone=G CORRIDOR is zero.
   **   ~~~   ** Check Sizing:Zone and ZoneControl:Thermostat inputs.
   ** Warning ** Calculated design heating load for zone=G CORRIDOR is zero.
   **   ~~~   ** Check Sizing:Zone and ZoneControl:Thermostat inputs.
   ** Warning ** Calculated design cooling load for zone=M CORRIDOR is zero.
   **   ~~~   ** Check Sizing:Zone and ZoneControl:Thermostat inputs.
   ** Warning ** Calculated design heating load for zone=M CORRIDOR is zero.
   **   ~~~   ** Check Sizing:Zone and ZoneControl:Thermostat inputs.
   ** Warning ** Calculated design cooling load for zone=T CORRIDOR is zero.
   **   ~~~   ** Check Sizing:Zone and ZoneControl:Thermostat inputs.
   ** Warning ** Calculated design heating load for zone=T CORRIDOR is zero.
   **   ~~~   ** Check Sizing:Zone and ZoneControl:Thermostat inputs.
   ************* Beginning System Sizing Calculations
   ** Warning ** Since Zone Minimum Air Flow Input Method = CONSTANT, input for Fixed Minimum Air Flow Rate will be ignored.
   **   ~~~   ** Occurs in AirTerminal:SingleDuct:VAV:Reheat = G SW APARTMENT TERMINAL
   ** Warning ** Since Zone Minimum Air Flow Input Method = CONSTANT, input for Fixed Minimum Air Flow Rate will be ignored.
   **   ~~~   ** Occurs in AirTerminal:SingleDuct:VAV:Reheat = G NW APARTMENT TERMINAL
   ** Warning ** Since Zone Minimum Air Flow Input Method = CONSTANT, input for Fixed Minimum Air Flow Rate will be ignored.
   **   ~~~   ** Occurs in AirTerminal:SingleDuct:VAV:Reheat = OFFICE TERMINAL
   ** Warning ** Since Zone Minimum Air Flow Input Method = CONSTANT, input for Fixed Minimum Air Flow Rate will be ignored.
   **   ~~~   ** Occurs in AirTerminal:SingleDuct:VAV:Reheat = G NE APARTMENT TERMINAL
   ** Warning ** Since Zone Minimum Air Flow Input Method = CONSTANT, input for Fixed Minimum Air Flow Rate will be ignored.
   **   ~~~   ** Occurs in AirTerminal:SingleDuct:VAV:Reheat = G N1 APARTMENT TERMINAL
   ** Warning ** Since Zone Minimum Air Flow Input Method = CONSTANT, input for Fixed Minimum Air Flow Rate will be ignored.
   **   ~~~   ** Occurs in AirTerminal:SingleDuct:VAV:Reheat = G N2 APARTMENT TERMINAL
   ** Warning ** Since Zone Minimum Air Flow Input Method = CONSTANT, input for Fixed Minimum Air Flow Rate will be ignored.
   **   ~~~   ** Occurs in AirTerminal:SingleDuct:VAV:Reheat = G S1 APARTMENT TERMINAL
   ** Warning ** Since Zone Minimum Air Flow Input Method = CONSTANT, input for Fixed Minimum Air Flow Rate will be ignored.
   **   ~~~   ** Occurs in AirTerminal:SingleDuct:VAV:Reheat = G S2 APARTMENT TERMINAL
   ** Warning ** Since Zone Minimum Air Flow Input Method = CONSTANT, input for Fixed Minimum Air Flow Rate will be ignored.
   **   ~~~   ** Occurs in AirTerminal:SingleDuct:VAV:Reheat = G CORRIDOR TERMINAL
   ** Warning ** Since Zone Minimum Air Flow Input Method = CONSTANT, input for Fixed Minimum Air Flow Rate will be ignored.
   **   ~~~   ** Occurs in AirTerminal:SingleDuct:VAV:Reheat = M SW APARTMENT TERMINAL
   ** Warning ** Since Zone Minimum Air Flow Input Method = CONSTANT, input for Fixed Minimum Air Flow Rate will be ignored.
   **   ~~~   ** Occurs in AirTerminal:SingleDuct:VAV:Reheat = M NW APARTMENT TERMINAL
   ** Warning ** Since Zone Minimum Air Flow Input Method = CONSTANT, input for Fixed Minimum Air Flow Rate will be ignored.
   **   ~~~   ** Occurs in AirTerminal:SingleDuct:VAV:Reheat = M SE APARTMENT TERMINAL
   ** Warning ** Since Zone Minimum Air Flow Input Method = CONSTANT, input for Fixed Minimum Air Flow Rate will be ignored.
   **   ~~~   ** Occurs in AirTerminal:SingleDuct:VAV:Reheat = M NE APARTMENT TERMINAL
   ** Warning ** Since Zone Minimum Air Flow Input Method = CONSTANT, input for Fixed Minimum Air Flow Rate will be ignored.
   **   ~~~   ** Occurs in AirTerminal:SingleDuct:VAV:Reheat = M N1 APARTMENT TERMINAL
   ** Warning ** Since Zone Minimum Air Flow Input Method = CONSTANT, input for Fixed Minimum Air Flow Rate will be ignored.
   **   ~~~   ** Occurs in AirTerminal:SingleDuct:VAV:Reheat = M N2 APARTMENT TERMINAL
   ** Warning ** Since Zone Minimum Air Flow Input Method = CONSTANT, input for Fixed Minimum Air Flow Rate will be ignored.
   **   ~~~   ** Occurs in AirTerminal:SingleDuct:VAV:Reheat = M S1 APARTMENT TERMINAL
   ** Warning ** Since Zone Minimum Air Flow Input Method = CONSTANT, input for Fixed Minimum Air Flow Rate will be ignored.
   **   ~~~   ** Occurs in AirTerminal:SingleDuct:VAV:Reheat = M S2 APARTMENT TERMINAL
   ** Warning ** Since Zone Minimum Air Flow Input Method = CONSTANT, input for Fixed Minimum Air Flow Rate will be ignored.
   **   ~~~   ** Occurs in AirTerminal:SingleDuct:VAV:Reheat = M CORRIDOR TERMINAL
   ** Warning ** Since Zone Minimum Air Flow Input Method = CONSTANT, input for Fixed Minimum Air Flow Rate will be ignored.
   **   ~~~   ** Occurs in AirTerminal:SingleDuct:VAV:Reheat = T SW APARTMENT TERMINAL
   ** Warning ** Since Zone Minimum Air Flow Input Method = CONSTANT, input for Fixed Minimum Air Flow Rate will be ignored.
   **   ~~~   ** Occurs in AirTerminal:SingleDuct:VAV:Reheat = T NW APARTMENT TERMINAL
   ** Warning ** Since Zone Minimum Air Flow Input Method = CONSTANT, input for Fixed Minimum Air Flow Rate will be ignored.
   **   ~~~   ** Occurs in AirTerminal:SingleDuct:VAV:Reheat = T SE APARTMENT TERMINAL
   ** Warning ** Since Zone Minimum Air Flow Input Method = CONSTANT, input for Fixed Minimum Air Flow Rate will be ignored.
   **   ~~~   ** Occurs in AirTerminal:SingleDuct:VAV:Reheat = T NE APARTMENT TERMINAL
   ** Warning ** Since Zone Minimum Air Flow Input Method = CONSTANT, input for Fixed Minimum Air Flow Rate will be ignored.
   **   ~~~   ** Occurs in AirTerminal:SingleDuct:VAV:Reheat = T N1 APARTMENT TERMINAL
   ** Warning ** Since Zone Minimum Air Flow Input Method = CONSTANT, input for Fixed Minimum Air Flow Rate will be ignored.
   **   ~~~   ** Occurs in AirTerminal:SingleDuct:VAV:Reheat = T N2 APARTMENT TERMINAL
   ** Warning ** Since Zone Minimum Air Flow Input Method = CONSTANT, input for Fixed Minimum Air Flow Rate will be ignored.
   **   ~~~   ** Occurs in AirTerminal:SingleDuct:VAV:Reheat = T S1 APARTMENT TERMINAL
   ** Warning ** Since Zone Minimum Air Flow Input Method = CONSTANT, input for Fixed Minimum Air Flow Rate will be ignored.
   **   ~~~   ** Occurs in AirTerminal:SingleDuct:VAV:Reheat = T S2 APARTMENT TERMINAL
   ** Warning ** Since Zone Minimum Air Flow Input Method = CONSTANT, input for Fixed Minimum Air Flow Rate will be ignored.
   **   ~~~   ** Occurs in AirTerminal:SingleDuct:VAV:Reheat = T CORRIDOR TERMINAL
   ** Severe  ** Node G SW APARTMENT TERMINAL INLET connects to no component
   **   ~~~   ** Occurs in Supply Air Path=VAV SYSTEM SUPPLY PATH
   **   ~~~   ** Check the connection to a ZoneHVAC:EquipmentConnections object
   **   ~~~   ** Check if this component is missing from the Supply Air Path
   ** Severe  ** Node G NW APARTMENT TERMINAL INLET connects to no component
   **   ~~~   ** Occurs in Supply Air Path=VAV SYSTEM SUPPLY PATH
   **   ~~~   ** Check the connection to a ZoneHVAC:EquipmentConnections object
   **   ~~~   ** Check if this component is missing from the Supply Air Path
   ** Severe  ** Node OFFICE TERMINAL INLET connects to no component
   **   ~~~   ** Occurs in Supply Air Path=VAV SYSTEM SUPPLY PATH
   **   ~~~   ** Check the connection to a ZoneHVAC:EquipmentConnections object
   **   ~~~   ** Check if this component is missing from the Supply Air Path
   ** Severe  ** Node G NE APARTMENT TERMINAL INLET connects to no component
   **   ~~~   ** Occurs in Supply Air Path=VAV SYSTEM SUPPLY PATH
   **   ~~~   ** Check the connection to a ZoneHVAC:EquipmentConnections object
   **   ~~~   ** Check if this component is missing from the Supply Air Path
   ** Severe  ** Node G N1 APARTMENT TERMINAL INLET connects to no component
   **   ~~~   ** Occurs in Supply Air Path=VAV SYSTEM SUPPLY PATH
   **   ~~~   ** Check the connection to a ZoneHVAC:EquipmentConnections object
   **   ~~~   ** Check if this component is missing from the Supply Air Path
   ** Severe  ** Node G N2 APARTMENT TERMINAL INLET connects to no component
   **   ~~~   ** Occurs in Supply Air Path=VAV SYSTEM SUPPLY PATH
   **   ~~~   ** Check the connection to a ZoneHVAC:EquipmentConnections object
   **   ~~~   ** Check if this component is missing from the Supply Air Path
   ** Severe  ** Node G S1 APARTMENT TERMINAL INLET connects to no component
   **   ~~~   ** Occurs in Supply Air Path=VAV SYSTEM SUPPLY PATH
   **   ~~~   ** Check the connection to a ZoneHVAC:EquipmentConnections object
   **   ~~~   ** Check if this component is missing from the Supply Air Path
   ** Severe  ** Node G S2 APARTMENT TERMINAL INLET connects to no component
   **   ~~~   ** Occurs in Supply Air Path=VAV SYSTEM SUPPLY PATH
   **   ~~~   ** Check the connection to a ZoneHVAC:EquipmentConnections object
   **   ~~~   ** Check if this component is missing from the Supply Air Path
   ** Severe  ** Node G CORRIDOR TERMINAL INLET connects to no component
   **   ~~~   ** Occurs in Supply Air Path=VAV SYSTEM SUPPLY PATH
   **   ~~~   ** Check the connection to a ZoneHVAC:EquipmentConnections object
   **   ~~~   ** Check if this component is missing from the Supply Air Path
   ** Severe  ** Node M SW APARTMENT TERMINAL INLET connects to no component
   **   ~~~   ** Occurs in Supply Air Path=VAV SYSTEM SUPPLY PATH
   **   ~~~   ** Check the connection to a ZoneHVAC:EquipmentConnections object
   **   ~~~   ** Check if this component is missing from the Supply Air Path
   ** Severe  ** Node M NW APARTMENT TERMINAL INLET connects to no component
   **   ~~~   ** Occurs in Supply Air Path=VAV SYSTEM SUPPLY PATH
   **   ~~~   ** Check the connection to a ZoneHVAC:EquipmentConnections object
   **   ~~~   ** Check if this component is missing from the Supply Air Path
   ** Severe  ** Node M SE APARTMENT TERMINAL INLET connects to no component
   **   ~~~   ** Occurs in Supply Air Path=VAV SYSTEM SUPPLY PATH
   **   ~~~   ** Check the connection to a ZoneHVAC:EquipmentConnections object
   **   ~~~   ** Check if this component is missing from the Supply Air Path
   ** Severe  ** Node M NE APARTMENT TERMINAL INLET connects to no component
   **   ~~~   ** Occurs in Supply Air Path=VAV SYSTEM SUPPLY PATH
   **   ~~~   ** Check the connection to a ZoneHVAC:EquipmentConnections object
   **   ~~~   ** Check if this component is missing from the Supply Air Path
   ** Severe  ** Node M N1 APARTMENT TERMINAL INLET connects to no component
   **   ~~~   ** Occurs in Supply Air Path=VAV SYSTEM SUPPLY PATH
   **   ~~~   ** Check the connection to a ZoneHVAC:EquipmentConnections object
   **   ~~~   ** Check if this component is missing from the Supply Air Path
   ** Severe  ** Node M N2 APARTMENT TERMINAL INLET connects to no component
   **   ~~~   ** Occurs in Supply Air Path=VAV SYSTEM SUPPLY PATH
   **   ~~~   ** Check the connection to a ZoneHVAC:EquipmentConnections object
   **   ~~~   ** Check if this component is missing from the Supply Air Path
   ** Severe  ** Node M S1 APARTMENT TERMINAL INLET connects to no component
   **   ~~~   ** Occurs in Supply Air Path=VAV SYSTEM SUPPLY PATH
   **   ~~~   ** Check the connection to a ZoneHVAC:EquipmentConnections object
   **   ~~~   ** Check if this component is missing from the Supply Air Path
   ** Severe  ** Node M S2 APARTMENT TERMINAL INLET connects to no component
   **   ~~~   ** Occurs in Supply Air Path=VAV SYSTEM SUPPLY PATH
   **   ~~~   ** Check the connection to a ZoneHVAC:EquipmentConnections object
   **   ~~~   ** Check if this component is missing from the Supply Air Path
   ** Severe  ** Node M CORRIDOR TERMINAL INLET connects to no component
   **   ~~~   ** Occurs in Supply Air Path=VAV SYSTEM SUPPLY PATH
   **   ~~~   ** Check the connection to a ZoneHVAC:EquipmentConnections object
   **   ~~~   ** Check if this component is missing from the Supply Air Path
   ** Severe  ** Node T SW APARTMENT TERMINAL INLET connects to no component
   **   ~~~   ** Occurs in Supply Air Path=VAV SYSTEM SUPPLY PATH
   **   ~~~   ** Check the connection to a ZoneHVAC:EquipmentConnections object
   **   ~~~   ** Check if this component is missing from the Supply Air Path
   ** Severe  ** Node T NW APARTMENT TERMINAL INLET connects to no component
   **   ~~~   ** Occurs in Supply Air Path=VAV SYSTEM SUPPLY PATH
   **   ~~~   ** Check the connection to a ZoneHVAC:EquipmentConnections object
   **   ~~~   ** Check if this component is missing from the Supply Air Path
   ** Severe  ** Node T SE APARTMENT TERMINAL INLET connects to no component
   **   ~~~   ** Occurs in Supply Air Path=VAV SYSTEM SUPPLY PATH
   **   ~~~   ** Check the connection to a ZoneHVAC:EquipmentConnections object
   **   ~~~   ** Check if this component is missing from the Supply Air Path
   ** Severe  ** Node T NE APARTMENT TERMINAL INLET connects to no component
   **   ~~~   ** Occurs in Supply Air Path=VAV SYSTEM SUPPLY PATH
   **   ~~~   ** Check the connection to a ZoneHVAC:EquipmentConnections object
   **   ~~~   ** Check if this component is missing from the Supply Air Path
   ** Severe  ** Node T N1 APARTMENT TERMINAL INLET connects to no component
   **   ~~~   ** Occurs in Supply Air Path=VAV SYSTEM SUPPLY PATH
   **   ~~~   ** Check the connection to a ZoneHVAC:EquipmentConnections object
   **   ~~~   ** Check if this component is missing from the Supply Air Path
   ** Severe  ** Node T N2 APARTMENT TERMINAL INLET connects to no component
   **   ~~~   ** Occurs in Supply Air Path=VAV SYSTEM SUPPLY PATH
   **   ~~~   ** Check the connection to a ZoneHVAC:EquipmentConnections object
   **   ~~~   ** Check if this component is missing from the Supply Air Path
   ** Severe  ** Node T S1 APARTMENT TERMINAL INLET connects to no component
   **   ~~~   ** Occurs in Supply Air Path=VAV SYSTEM SUPPLY PATH
   **   ~~~   ** Check the connection to a ZoneHVAC:EquipmentConnections object
   **   ~~~   ** Check if this component is missing from the Supply Air Path
   ** Severe  ** Node T S2 APARTMENT TERMINAL INLET connects to no component
   **   ~~~   ** Occurs in Supply Air Path=VAV SYSTEM SUPPLY PATH
   **   ~~~   ** Check the connection to a ZoneHVAC:EquipmentConnections object
   **   ~~~   ** Check if this component is missing from the Supply Air Path
   ** Severe  ** Node T CORRIDOR TERMINAL INLET connects to no component
   **   ~~~   ** Occurs in Supply Air Path=VAV SYSTEM SUPPLY PATH
   **   ~~~   ** Check the connection to a ZoneHVAC:EquipmentConnections object
   **   ~~~   ** Check if this component is missing from the Supply Air Path
   ** Severe  ** An outlet node in AirLoopHVAC="VAV SYSTEM" is not connected to any zone
   **   ~~~   ** Could not match ZoneEquipGroup Inlet Node="VAV SYSTEM DEMAND INLET NODE" to any Supply Air Path or controlled zone
   **  Fatal  ** Preceding errors cause termination
   ...Summary of Errors that led to program termination:
   ..... Reference severe error count=28
   ..... Last severe error=An outlet node in AirLoopHVAC="VAV SYSTEM" is not connected to any zone
   ************* Warning:  Node connection errors not checked - most system input has not been read (see previous warning).
   ************* Fatal error -- final processing.  Program exited before simulations began.  See previous error messages.
   *************
   ************* ===== Final Error Summary =====
   ************* The following error categories occurred.  Consider correcting or noting.
   ************* Nominally Unused Constructions
   ************* ..The nominally unused constructions warning is provided to alert you to potential conditions that can cause
   ************* ..extra time during simulation. Each construction is calculated by the algorithm indicated in the HeatBalanceAlgorithm
   ************* ..object. You may remove the constructions indicated (when you use the DisplayExtraWarnings option).
   *************
   ************* EnergyPlus Warmup Error Summary. During Warmup: 0 Warning; 0 Severe Errors.
   ************* EnergyPlus Sizing Error Summary. During Sizing: 39 Warning; 28 Severe Errors.
   ************* EnergyPlus Terminated--Fatal Error Detected. 39 Warning; 28 Severe Errors; Elapsed Time=00hr 00min  0.76sec
