Program Version,EnergyPlus, Version 24.2.0-94a887817b, YMD=2025.03.13 16:45,
   ** Severe  ** During Branch Input, Invalid Component Name input=BYPASS HEAT EXCHANGER
   **   ~~~   ** Component type=HEATEXCHANGER:FLUIDTOFLUID
   **   ~~~   ** Occurs on Branch=COOLSYS1 HEAT EXCHANGER SUPPLY BRANCH
   ** Severe  ** During Branch Input, Invalid Component Name input=BYPASS HEAT EXCHANGER
   **   ~~~   ** Component type=HEATEXCHANGER:FLUIDTOFLUID
   **   ~~~   ** Occurs on Branch=COOLSYS1 HEAT EXCHANGER DEMAND BRANCH
   ** Severe  ** During Branch Input, Invalid Component Name input=VAV_1 COOLING COIL
   **   ~~~   ** Component type=COIL:COOLING:WATER
   **   ~~~   ** Occurs on Branch=COOLSYS1 VAV_1 DEMAND LOAD BRANCH
   ** Severe  ** During Branch Input, Invalid Component Name input=VAV_2 COOLING COIL
   **   ~~~   ** Component type=COIL:COOLING:WATER
   **   ~~~   ** Occurs on Branch=COOLSYS1 VAV_2 DEMAND LOAD BRANCH
   ** Severe  ** During Branch Input, Invalid Component Name input=VAV_ER COOLING COIL
   **   ~~~   ** Component type=COIL:COOLING:WATER
   **   ~~~   ** Occurs on Branch=COOLSYS1 VAV_ER DEMAND LOAD BRANCH
   ** Severe  ** During Branch Input, Invalid Component Name input=VAV_OR COOLING COIL
   **   ~~~   ** Component type=COIL:COOLING:WATER
   **   ~~~   ** Occurs on Branch=COOLSYS1 VAV_OR DEMAND LOAD BRANCH
   ** Severe  ** During Branch Input, Invalid Component Name input=VAV_ICU COOLING COIL
   **   ~~~   ** Component type=COIL:COOLING:WATER
   **   ~~~   ** Occurs on Branch=COOLSYS1 VAV_ICU DEMAND LOAD BRANCH
   ** Severe  ** During Branch Input, Invalid Component Name input=VAV_PATRMS COOLING COIL
   **   ~~~   ** Component type=COIL:COOLING:WATER
   **   ~~~   ** Occurs on Branch=COOLSYS1 VAV_PATRMS DEMAND LOAD BRANCH
   ** Severe  ** During Branch Input, Invalid Component Name input=VAV_LABS COOLING COIL
   **   ~~~   ** Component type=COIL:COOLING:WATER
   **   ~~~   ** Occurs on Branch=COOLSYS1 VAV_LABS DEMAND LOAD BRANCH
   ** Severe  ** During Branch Input, Invalid Component Name input=CAV_KITCHEN COOLING COIL
   **   ~~~   ** Component type=COIL:COOLING:WATER
   **   ~~~   ** Occurs on Branch=COOLSYS1 KITCHEN_FLR_5 DEMAND LOAD BRANCH
   ************* Beginning Zone Sizing Calculations
   ** Warning ** Weather file location will be used rather than entered (IDF) Location object.
   **   ~~~   ** ..Location object=NEW.YORK-JOHN.F.KENNEDY.INTL.AP_NY_USA WMO=744860
   **   ~~~   ** ..Weather File Location=New York J F Kennedy IntL Ar NY USA TMY3 WMO#=744860
   **   ~~~   ** ..due to location differences, Latitude difference=[1.00E-002] degrees, Longitude difference=[0.00] degrees.
   **   ~~~   ** ..Time Zone difference=[0.0] hour(s), Elevation difference=[28.57] percent, [2.00] meters.
   ** Warning ** ProcessScheduleInput: Schedule:Constant="VAV_1 MAX OA FRACTION", Blank Schedule Type Limits Name input -- will not be validated.
   ** Warning ** ProcessScheduleInput: Schedule:Constant="VAV_2 MAX OA FRACTION", Blank Schedule Type Limits Name input -- will not be validated.
   ** Warning ** CalculateZoneVolume: The Zone="LAB_FLR_3" is not fully enclosed. To be fully enclosed, each edge of a surface must also be an edge on one other surface.
   **   ~~~   **   The zone volume was calculated using the floor area times ceiling height method where the floor and ceiling are the same except for the z-coordinates.
   **   ~~~   **   The surface "LAB_FLR_3_WALL_1_NORTH" has an edge that was used only once: it is not an edge on another surface
   **   ~~~   **     Vertex start { -33.5280, 9.1440, 8.5366}
   **   ~~~   **     Vertex end   { -33.5280, 9.1440, 12.8049}
   **   ~~~   **   The surface "LAB_FLR_3_WALL_WEST" has an edge that was used only once: it is not an edge on another surface
   **   ~~~   **     Vertex start { -33.5820, 9.1440, 12.8049}
   **   ~~~   **     Vertex end   { -33.5820, 9.1440, 8.5366}
   ** Warning ** CalculateZoneVolume: The Zone="LAB_FLR_4" is not fully enclosed. To be fully enclosed, each edge of a surface must also be an edge on one other surface.
   **   ~~~   **   The zone volume was calculated using the floor area times ceiling height method where the floor and ceiling are the same except for the z-coordinates.
   **   ~~~   **   The surface "LAB_FLR_4_WALL_1_NORTH" has an edge that was used only once: it is not an edge on another surface
   **   ~~~   **     Vertex start { -33.5280, 9.1440, 12.8049}
   **   ~~~   **     Vertex end   { -33.5280, 9.1440, 17.0732}
   **   ~~~   **   The surface "LAB_FLR_4_WALL_WEST" has an edge that was used only once: it is not an edge on another surface
   **   ~~~   **     Vertex start { -33.5820, 9.1440, 17.0732}
   **   ~~~   **     Vertex end   { -33.5820, 9.1440, 12.8049}
   ** Warning ** CheckUsedConstructions: There are 22 nominally unused constructions in input.
   **   ~~~   ** Each Unused construction is shown.
   ************* Construction=DROPCEILING
   ************* Construction=OPAQUEDOOR
   ************* Construction=ATTICROOFDECK
   ************* Construction=EXT_SLAB_8IN
   ************* Construction=EXT_SLAB_6IN_WITH_CARPET
   ************* Construction=EXT_SLAB_6IN
   ************* Construction=BASEMENT_WALL
   ************* Construction=INT_WOOD_FLOOR
   ************* Construction=EXT_SOFFIT_FLOOR
   ************* Construction=RES_ROOF
   ************* Construction=SEMIHEATED_ROOF
   ************* Construction=RES_EXT_WALL_GRD
   ************* Construction=RES_EXT_WALL_TOP
   ************* Construction=SEMIHEATED_EXT_WALL_GRD
   ************* Construction=SEMIHEATED_EXT_WALL_MID
   ************* Construction=SEMIHEATED_EXT_WALL_TOP
   ************* Construction=NONRES_FLOOR
   ************* Construction=RES_FLOOR
   ************* Construction=SEMIHEATED_FLOOR
   ************* Construction=NONRES_FLOOR_CEILING
   ************* Construction=RES_FLOOR_CEILING
   ************* Construction=SEMIHEATED_FLOOR_CEILING
   ** Warning ** GetDaylightingControls: Fraction of zone or space controlled by the Daylighting reference points is < 1.0.
   **   ~~~   ** ..discovered in Daylighting:Controls="OFFICE1_FLR_5_DAYLCTRL", only 0.770 of the zone or space is controlled.
   ** Warning ** GetDaylightingControls: Fraction of zone or space controlled by the Daylighting reference points is < 1.0.
   **   ~~~   ** ..discovered in Daylighting:Controls="OFFICE3_FLR_5_DAYLCTRL", only 0.770 of the zone or space is controlled.
   ** Warning ** GetDaylightingControls: Fraction of zone or space controlled by the Daylighting reference points is < 1.0.
   **   ~~~   ** ..discovered in Daylighting:Controls="LOBBY_RECORDS_FLR_1_DAYLCTRL", only 0.150 of the zone or space is controlled.
   ** Warning ** GetDaylightingControls: Fraction of zone or space controlled by the Daylighting reference points is < 1.0.
   **   ~~~   ** ..discovered in Daylighting:Controls="OFFICE4_MULT6_FLR_5_DAYLCTRL", only 0.940 of the zone or space is controlled.
   ** Warning ** GetDaylightingControls: Fraction of zone or space controlled by the Daylighting reference points is < 1.0.
   **   ~~~   ** ..discovered in Daylighting:Controls="OFFICE2_MULT5_FLR_5_DAYLCTRL", only 0.470 of the zone or space is controlled.
   ** Warning ** GetDaylightingControls: Fraction of zone or space controlled by the Daylighting reference points is < 1.0.
   **   ~~~   ** ..discovered in Daylighting:Controls="DINING_FLR_5_DAYLCTRL", only 0.190 of the zone or space is controlled.
   ** Warning ** GetSimpleAirModelInputs: ZoneInfiltration:DesignFlowRate="BASEMENT_INFILTRATION", Design Flow Rate Calculation Method specifies Flow Rate per Exterior Surface Area, but Exterior Wall Area = 0.  0 Infiltration will result.
   ** Warning ** GetSimpleAirModelInputs: ZoneInfiltration:DesignFlowRate="OR4_FLR_2_INFILTRATION", Design Flow Rate Calculation Method specifies Flow Rate per Exterior Surface Area, but Exterior Wall Area = 0.  0 Infiltration will result.
   ** Warning ** GetSimpleAirModelInputs: ZoneInfiltration:DesignFlowRate="ICU_NURSESTN_LOBBY_FLR_2_INFILTRATION", Design Flow Rate Calculation Method specifies Flow Rate per Exterior Surface Area, but Exterior Wall Area = 0.  0 Infiltration will result.
   ** Warning ** GetSimpleAirModelInputs: ZoneInfiltration:DesignFlowRate="PHYSTHERAPY_FLR_3_INFILTRATION", Design Flow Rate Calculation Method specifies Flow Rate per Exterior Surface Area, but Exterior Wall Area = 0.  0 Infiltration will result.
   ** Warning ** GetSimpleAirModelInputs: ZoneInfiltration:DesignFlowRate="NURSESTN_LOBBY_FLR_3_INFILTRATION", Design Flow Rate Calculation Method specifies Flow Rate per Exterior Surface Area, but Exterior Wall Area = 0.  0 Infiltration will result.
   ** Warning ** GetSimpleAirModelInputs: ZoneInfiltration:DesignFlowRate="LAB_FLR_3_INFILTRATION", Design Flow Rate Calculation Method specifies Flow Rate per Exterior Surface Area, but Exterior Wall Area = 0.  0 Infiltration will result.
   ** Warning ** GetSimpleAirModelInputs: ZoneInfiltration:DesignFlowRate="RADIOLOGY_FLR_4_INFILTRATION", Design Flow Rate Calculation Method specifies Flow Rate per Exterior Surface Area, but Exterior Wall Area = 0.  0 Infiltration will result.
   ** Warning ** GetSimpleAirModelInputs: ZoneInfiltration:DesignFlowRate="NURSESTN_LOBBY_FLR_4_INFILTRATION", Design Flow Rate Calculation Method specifies Flow Rate per Exterior Surface Area, but Exterior Wall Area = 0.  0 Infiltration will result.
   ** Warning ** GetSimpleAirModelInputs: ZoneInfiltration:DesignFlowRate="LAB_FLR_4_INFILTRATION", Design Flow Rate Calculation Method specifies Flow Rate per Exterior Surface Area, but Exterior Wall Area = 0.  0 Infiltration will result.
   **  Fatal  ** LocalPlantFluidHXFactory: Error getting inputs for object named: BYPASS HEAT EXCHANGER
   ...Summary of Errors that led to program termination:
   ..... Reference severe error count=10
   ..... Last severe error=During Branch Input, Invalid Component Name input=CAV_KITCHEN COOLING COIL
   ************* Warning:  Node connection errors not checked - most system input has not been read (see previous warning).
   ************* Fatal error -- final processing.  Program exited before simulations began.  See previous error messages.
   *************
   ************* ===== Final Error Summary =====
   ************* The following error categories occurred.  Consider correcting or noting.
   ************* Nominally Unused Constructions
   ************* ..The nominally unused constructions warning is provided to alert you to potential conditions that can cause
   ************* ..extra time during simulation. Each construction is calculated by the algorithm indicated in the HeatBalanceAlgorithm
   ************* ..object. You may remove the constructions indicated (when you use the DisplayExtraWarnings option).
   *************
   ************* EnergyPlus Warmup Error Summary. During Warmup: 0 Warning; 0 Severe Errors.
   ************* EnergyPlus Sizing Error Summary. During Sizing: 21 Warning; 0 Severe Errors.
   ************* EnergyPlus Terminated--Fatal Error Detected. 21 Warning; 10 Severe Errors; Elapsed Time=00hr 00min  0.32sec
