Program Version,EnergyPlus, Version 24.2.0-94a887817b, YMD=2025.05.07 11:09
! <Version>, Version ID
 Version, 24.2
! <Timesteps per Hour>, #TimeSteps, Minutes per TimeStep {minutes}
 Timesteps per Hour,  6, 10
! <System Convergence Limits>, Minimum System TimeStep {minutes}, Max HVAC Iterations, Minimum Plant Iterations, Maximum Plant Iterations
 System Convergence Limits, 1, 20, 2, 8
! <Simulation Control>, Do Zone Sizing, Do System Sizing, Do Plant Sizing, Do Design Days, Do Weather Simulation, Do HVAC Sizing Simulation
 Simulation Control, Yes, Yes, Yes, No, Yes, No
! <Performance Precision Tradeoffs>, Use Coil Direct Simulation, Zone Radiant Exchange Algorithm, Override Mode, Number of Timestep In Hour, Force Euler Method, Minimum Number of Warmup Days, Force Suppress All Begin Environment Resets, Minimum System Timestep, MaxZoneTempDiff, MaxAllowedDelTemp
 Performance Precision Tradeoffs, No, ScriptF, Normal, 6, No, 1, No, 1.0, 0.300, 2.0000E-003
! <Output Reporting Tolerances>, Tolerance for Time Heating Setpoint Not Met, Tolerance for Zone Cooling Setpoint Not Met Time
 Output Reporting Tolerances, 0.200, 0.200, 
! <Site:GroundTemperature:BuildingSurface>,Jan{C},Feb{C},Mar{C},Apr{C},May{C},Jun{C},Jul{C},Aug{C},Sep{C},Oct{C},Nov{C},Dec{C}
 Site:GroundTemperature:BuildingSurface,  18.00,  18.00,  18.00,  18.00,  18.00,  18.00,  18.00,  18.00,  18.00,  18.00,  18.00,  18.00
! <Site:GroundTemperature:FCfactorMethod>,Jan{C},Feb{C},Mar{C},Apr{C},May{C},Jun{C},Jul{C},Aug{C},Sep{C},Oct{C},Nov{C},Dec{C}
 Site:GroundTemperature:FCfactorMethod,  14.00,   7.30,   3.30,   1.20,  -0.20,   5.60,  10.90,  16.10,  21.70,  25.00,  24.80,  19.90
! <Site:GroundTemperature:Shallow>,Jan{C},Feb{C},Mar{C},Apr{C},May{C},Jun{C},Jul{C},Aug{C},Sep{C},Oct{C},Nov{C},Dec{C}
 Site:GroundTemperature:Shallow,  13.00,  13.00,  13.00,  13.00,  13.00,  13.00,  13.00,  13.00,  13.00,  13.00,  13.00,  13.00
! <Site:GroundTemperature:Deep>,Jan{C},Feb{C},Mar{C},Apr{C},May{C},Jun{C},Jul{C},Aug{C},Sep{C},Oct{C},Nov{C},Dec{C}
 Site:GroundTemperature:Deep,  16.00,  16.00,  16.00,  16.00,  16.00,  16.00,  16.00,  16.00,  16.00,  16.00,  16.00,  16.00
! <Site:GroundReflectance>,Jan{dimensionless},Feb{dimensionless},Mar{dimensionless},Apr{dimensionless},May{dimensionless},Jun{dimensionless},Jul{dimensionless},Aug{dimensionless},Sep{dimensionless},Oct{dimensionless},Nov{dimensionless},Dec{dimensionless}
 Site:GroundReflectance,  0.20,  0.20,  0.20,  0.20,  0.20,  0.20,  0.20,  0.20,  0.20,  0.20,  0.20,  0.20
! <Site:GroundReflectance:SnowModifier>, Normal, Daylighting {dimensionless}
 Site:GroundReflectance:SnowModifier,   1.000,   1.000
! <Site:GroundReflectance:Snow>,Jan{dimensionless},Feb{dimensionless},Mar{dimensionless},Apr{dimensionless},May{dimensionless},Jun{dimensionless},Jul{dimensionless},Aug{dimensionless},Sep{dimensionless},Oct{dimensionless},Nov{dimensionless},Dec{dimensionless}
 Site:GroundReflectance:Snow,  0.20,  0.20,  0.20,  0.20,  0.20,  0.20,  0.20,  0.20,  0.20,  0.20,  0.20,  0.20
! <Site:GroundReflectance:Snow:Daylighting>,Jan{dimensionless},Feb{dimensionless},Mar{dimensionless},Apr{dimensionless},May{dimensionless},Jun{dimensionless},Jul{dimensionless},Aug{dimensionless},Sep{dimensionless},Oct{dimensionless},Nov{dimensionless},Dec{dimensionless}
 Site:GroundReflectance:Snow:Daylighting,  0.20,  0.20,  0.20,  0.20,  0.20,  0.20,  0.20,  0.20,  0.20,  0.20,  0.20,  0.20
! <Environment:Weather Station>,Wind Sensor Height Above Ground {m},Wind Speed Profile Exponent {},Wind Speed Profile Boundary Layer Thickness {m},Air Temperature Sensor Height Above Ground {m},Wind Speed Modifier Coefficient-Internal,Temperature Modifier Coefficient-Internal
Environment:Weather Station,10.000,0.140,270.000,1.500,1.586,9.750E-003
! <Site:Location>, Location Name, Latitude {N+/S- Deg}, Longitude {E+/W- Deg},  Time Zone Number {GMT+/-}, Elevation {m},  Standard Pressure at Elevation {Pa}, Standard RhoAir at Elevation
Site:Location,New York J F Kennedy IntL Ar NY USA TMY3 WMO#=744860,40.65,-73.80,-5.00,5.00,101265,1.2036
! <Site Water Mains Temperature Information>,Calculation Method{},Water Mains Temperature Schedule Name{},Annual Average Outdoor Air Temperature{C},Maximum Difference In Monthly Average Outdoor Air Temperatures{deltaC},Fixed Default Water Mains Temperature{C}
Site Water Mains Temperature Information,Correlation,NA,12.47,25.20,NA
! <Building Information>, Building Name,North Axis {deg},Terrain,  Loads Convergence Tolerance Value,Temperature Convergence Tolerance Value,  Solar Distribution,Maximum Number of Warmup Days,Minimum Number of Warmup Days
 Building Information,OfficeLarge,0.000,City,4.00000E-002,0.20000,FullInteriorAndExterior,25,6
! <Inside Convection Algorithm>, Algorithm {Simple | TARP | CeilingDiffuser | AdaptiveConvectionAlgorithm}
Inside Convection Algorithm,TARP
! <Outside Convection Algorithm>, Algorithm {SimpleCombined | TARP | MoWitt | DOE-2 | AdaptiveConvectionAlgorithm}
Outside Convection Algorithm,TARP
! <Sky Radiance Distribution>, Value {Anisotropic}
Sky Radiance Distribution,Anisotropic
! <Zone Air Solution Algorithm>, Algorithm {ThirdOrderBackwardDifference | AnalyticalSolution | EulerMethod}, Space Heat Balance Sizing, Space Heat Balance Simulation
 Zone Air Solution Algorithm, ThirdOrderBackwardDifference, No, No
! <Zone Air Carbon Dioxide Balance Simulation>, Simulation {Yes/No}, Carbon Dioxide Concentration
 Zone Air Carbon Dioxide Balance Simulation, No,N/A
! <Zone Air Generic Contaminant Balance Simulation>, Simulation {Yes/No}, Generic Contaminant Concentration
 Zone Air Generic Contaminant Balance Simulation, No,N/A
! <Zone Air Mass Flow Balance Simulation>, Enforce Mass Balance, Adjust Zone Mixing and Return {AdjustMixingOnly | AdjustReturnOnly | AdjustMixingThenReturn | AdjustReturnThenMixing | None}, Adjust Zone Infiltration {AddInfiltration | AdjustInfiltration | None}, Infiltration Zones {MixingSourceZonesOnly | AllZones}
 Zone Air Mass Flow Balance Simulation, No,N/A,N/A,N/A
! <HVACSystemRootFindingAlgorithm>, Value {RegulaFalsi | Bisection | BisectionThenRegulaFalsi | RegulaFalsiThenBisection}
 HVACSystemRootFindingAlgorithm, RegulaFalsi
! <Environment:Site Atmospheric Variation>,Wind Speed Profile Exponent {},Wind Speed Profile Boundary Layer Thickness {m},Air Temperature Gradient Coefficient {K/m}
Environment:Site Atmospheric Variation,0.330,460.000,6.500000E-003
! <Shadowing/Sun Position Calculations Annual Simulations>, Shading Calculation Method, Shading Calculation Update Frequency Method, Shading Calculation Update Frequency {days}, Maximum Figures in Shadow Overlap Calculations {}, Polygon Clipping Algorithm, Pixel Counting Resolution, Sky Diffuse Modeling Algorithm, Output External Shading Calculation Results, Disable Self-Shading Within Shading Zone Groups, Disable Self-Shading From Shading Zone Groups to Other Zones
Shadowing/Sun Position Calculations Annual Simulations,PolygonClipping,Periodic,30,15000,SutherlandHodgman,512,SimpleSkyDiffuseModeling,No,No,No
! <Surface Geometry>,Starting Corner,Vertex Input Direction,Coordinate System,Daylight Reference Point Coordinate System,Rectangular (Simple) Surface Coordinate System
 Surface Geometry,UpperLeftCorner,Counterclockwise,RelativeCoordinateSystem,RelativeCoordinateSystem,RelativeToZoneOrigin
! <Surface Heat Transfer Algorithm>, Value {CTF - ConductionTransferFunction | EMPD - MoisturePenetrationDepthConductionTransferFunction | CondFD - ConductionFiniteDifference | HAMT - CombinedHeatAndMoistureFiniteElement} - Description,Inside Surface Max Temperature Limit{C}, Surface Convection Coefficient Lower Limit {W/m2-K}, Surface Convection Coefficient Upper Limit {W/m2-K}
Surface Heat Transfer Algorithm, CTF - ConductionTransferFunction,200,0.10,1000.0
! <Shading Summary>, Number of Fixed Detached Shades, Number of Building Detached Shades, Number of Attached Shades
 Shading Summary,0,0,0
! <Zone Summary>, Number of Zones, Number of Zone Surfaces, Number of SubSurfaces
 Zone Summary,23,221,36
! <Zone Information>,Zone Name,North Axis {deg},Origin X-Coordinate {m},Origin Y-Coordinate {m},Origin Z-Coordinate {m},Centroid X-Coordinate {m},Centroid Y-Coordinate {m},Centroid Z-Coordinate {m},Type,Zone Multiplier,Zone List Multiplier,Minimum X {m},Maximum X {m},Minimum Y {m},Maximum Y {m},Minimum Z {m},Maximum Z {m},Ceiling Height {m},Volume {m3},Zone Inside Convection Algorithm {Simple-Detailed-CeilingDiffuser-TrombeWall},Zone Outside Convection Algorithm {Simple-Detailed-Tarp-MoWitt-DOE-2-BLAST}, Floor Area {m2},Exterior Gross Wall Area {m2},Exterior Net Wall Area {m2},Exterior Window Area {m2}, Number of Surfaces, Number of SubSurfaces, Number of Shading SubSurfaces,  Part of Total Building Area
 Zone Information, BASEMENT,0.0,0.00,0.00,0.00,44.59,24.37,-1.22,1,1,1,16.08,73.11,0.00,48.74,-2.44,0.00,2.44,6779.02,TARP,TARP,2779.43,0.00,0.00,0.00,9,0,0,Yes
 Zone Information, CORE_BOTTOM,0.0,0.00,0.00,0.00,37.01,24.37,1.37,1,1,1,5.49,68.53,4.57,44.17,0.00,2.74,2.74,6849.35,TARP,TARP,2496.12,0.00,0.00,0.00,7,0,0,Yes
 Zone Information, CORE_MID,0.0,0.00,0.00,0.00,37.01,24.37,18.14,1,10,1,5.49,68.53,4.57,44.17,16.77,19.51,2.74,6849.35,TARP,TARP,2496.12,0.00,0.00,0.00,6,0,0,Yes
 Zone Information, CORE_TOP,0.0,0.00,0.00,0.00,37.01,24.37,34.91,1,1,1,5.49,68.53,4.57,44.17,33.54,36.28,2.74,6849.35,TARP,TARP,2496.12,0.00,0.00,0.00,6,0,0,Yes
 Zone Information, PERIMETER_BOT_ZN_3,0.0,0.00,0.00,0.00,36.55,46.54,1.37,1,1,1,0.00,73.11,44.17,48.74,0.00,2.74,2.74,860.00,TARP,TARP,313.41,200.61,76.91,115.90,8,9,0,Yes
 Zone Information, PERIMETER_BOT_ZN_2,0.0,0.00,0.00,0.00,70.95,24.37,1.37,1,1,1,68.53,73.11,0.00,48.74,0.00,2.74,2.74,554.22,TARP,TARP,201.98,133.74,52.57,77.26,6,5,0,Yes
 Zone Information, PERIMETER_BOT_ZN_1,0.0,0.00,0.00,0.00,36.55,2.20,1.37,1,1,1,0.00,73.11,0.00,4.57,0.00,2.74,2.74,860.02,TARP,TARP,313.42,200.61,76.91,115.90,8,9,0,Yes
 Zone Information, PERIMETER_BOT_ZN_4,0.0,0.00,0.00,0.00,2.16,24.37,1.37,1,1,1,0.00,4.57,0.00,48.74,0.00,2.74,2.74,554.22,TARP,TARP,201.98,133.74,52.57,77.26,6,5,0,Yes
 Zone Information, PERIMETER_MID_ZN_3,0.0,0.00,0.00,0.00,36.55,46.54,18.14,1,10,1,0.00,73.11,44.17,48.74,16.77,19.51,2.74,860.00,TARP,TARP,313.41,200.61,84.71,115.90,7,1,0,Yes
 Zone Information, PERIMETER_MID_ZN_2,0.0,0.00,0.00,0.00,70.95,24.37,18.14,1,10,1,68.53,73.11,0.00,48.74,16.77,19.51,2.74,554.22,TARP,TARP,201.98,133.74,56.47,77.26,6,1,0,Yes
 Zone Information, PERIMETER_MID_ZN_1,0.0,0.00,0.00,0.00,36.55,2.20,18.14,1,10,1,0.00,73.11,0.00,4.57,16.77,19.51,2.74,860.02,TARP,TARP,313.42,200.61,84.71,115.90,7,1,0,Yes
 Zone Information, PERIMETER_MID_ZN_4,0.0,0.00,0.00,0.00,2.16,24.37,18.14,1,10,1,0.00,4.57,0.00,48.74,16.77,19.51,2.74,554.22,TARP,TARP,201.98,133.74,56.47,77.26,6,1,0,Yes
 Zone Information, PERIMETER_TOP_ZN_3,0.0,0.00,0.00,0.00,36.55,46.54,34.91,1,1,1,0.00,73.11,44.17,48.74,33.54,36.28,2.74,860.00,TARP,TARP,313.41,200.61,84.71,115.90,7,1,0,Yes
 Zone Information, PERIMETER_TOP_ZN_2,0.0,0.00,0.00,0.00,70.95,24.37,34.91,1,1,1,68.53,73.11,0.00,48.74,33.54,36.28,2.74,554.22,TARP,TARP,201.98,133.74,56.47,77.26,6,1,0,Yes
 Zone Information, PERIMETER_TOP_ZN_1,0.0,0.00,0.00,0.00,36.55,2.20,34.91,1,1,1,0.00,73.11,0.00,4.57,33.54,36.28,2.74,860.02,TARP,TARP,313.42,200.61,84.71,115.90,7,1,0,Yes
 Zone Information, PERIMETER_TOP_ZN_4,0.0,0.00,0.00,0.00,2.16,24.37,34.91,1,1,1,0.00,4.57,0.00,48.74,33.54,36.28,2.74,554.22,TARP,TARP,201.98,133.74,56.47,77.26,6,1,0,Yes
 Zone Information, GROUNDFLOOR_PLENUM,0.0,0.00,0.00,0.00,36.55,24.37,3.35,1,1,1,0.00,73.11,0.00,48.74,2.74,3.96,1.22,4344.14,TARP,TARP,3563.11,297.11,297.11,0.00,11,0,0,No
 Zone Information, MIDFLOOR_PLENUM,0.0,0.00,0.00,0.00,36.55,24.37,20.12,1,10,1,0.00,73.11,0.00,48.74,19.51,20.73,1.22,4344.14,TARP,TARP,3563.11,297.11,297.11,0.00,11,0,0,No
 Zone Information, TOPFLOOR_PLENUM,0.0,0.00,0.00,0.00,36.55,24.37,36.89,1,1,1,0.00,73.11,0.00,48.74,36.28,37.50,1.22,4344.14,TARP,TARP,3563.11,297.11,297.11,0.00,11,0,0,No
 Zone Information, DATACENTER_BOT_ZN_6,0.0,5.49,44.17,0.00,5.03,24.37,1.37,1,1,1,4.57,5.49,4.57,44.17,0.00,2.74,2.74,99.34,TARP,TARP,36.20,0.00,0.00,0.00,6,0,0,Yes
 Zone Information, DATACENTER_MID_ZN_6,0.0,4.57,4.57,16.77,5.03,24.37,18.14,1,10,1,4.57,5.49,4.57,44.17,16.77,19.51,2.74,99.34,TARP,TARP,36.20,0.00,0.00,0.00,6,0,0,Yes
 Zone Information, DATACENTER_TOP_ZN_6,0.0,4.57,4.57,33.54,5.03,24.37,34.91,1,1,1,4.57,5.49,4.57,44.17,33.54,36.28,2.74,99.34,TARP,TARP,36.20,0.00,0.00,0.00,6,0,0,Yes
 Zone Information, DATACENTER_BASEMENT_ZN_6,0.0,16.08,0.00,-2.44,8.04,24.37,-1.22,1,1,1,0.00,16.08,0.00,48.74,-2.44,0.00,2.44,1911.37,TARP,TARP,783.68,0.00,0.00,0.00,10,0,0,Yes
! <Zone Internal Gains Nominal>,Zone Name, Floor Area {m2},# Occupants,Area per Occupant {m2/person},Occupant per Area {person/m2},Interior Lighting {W/m2},Electric Load {W/m2},Gas Load {W/m2},Other Load {W/m2},Hot Water Eq {W/m2},Steam Equipment {W/m2},Sum Loads per Area {W/m2},Outdoor Controlled Baseboard Heat
 Zone Internal Gains Nominal, BASEMENT,2779.43,149.6,18.579,5.382E-002,5.778,4.842,0.000,0.000,0.000,0.000,10.619,No
 Zone Internal Gains Nominal, CORE_BOTTOM,2496.12,134.4,18.579,5.382E-002,5.778,8.070,0.000,0.000,0.000,0.000,13.847,No
 Zone Internal Gains Nominal, CORE_MID,2496.12,134.4,18.579,5.382E-002,5.778,8.070,0.000,0.000,0.000,0.000,13.847,No
 Zone Internal Gains Nominal, CORE_TOP,2496.12,134.4,18.579,5.382E-002,5.778,8.070,0.000,0.000,0.000,0.000,13.847,No
 Zone Internal Gains Nominal, PERIMETER_BOT_ZN_3,313.41,16.9,18.579,5.382E-002,5.778,8.070,0.000,0.000,0.000,0.000,13.848,No
 Zone Internal Gains Nominal, PERIMETER_BOT_ZN_2,201.98,10.9,18.579,5.382E-002,5.778,8.070,0.000,0.000,0.000,0.000,13.848,No
 Zone Internal Gains Nominal, PERIMETER_BOT_ZN_1,313.42,16.9,18.579,5.382E-002,5.778,8.070,0.000,0.000,0.000,0.000,13.848,No
 Zone Internal Gains Nominal, PERIMETER_BOT_ZN_4,201.98,10.9,18.579,5.382E-002,5.778,8.070,0.000,0.000,0.000,0.000,13.848,No
 Zone Internal Gains Nominal, PERIMETER_MID_ZN_3,313.41,16.9,18.579,5.382E-002,5.778,8.070,0.000,0.000,0.000,0.000,13.848,No
 Zone Internal Gains Nominal, PERIMETER_MID_ZN_2,201.98,10.9,18.579,5.382E-002,5.778,8.070,0.000,0.000,0.000,0.000,13.848,No
 Zone Internal Gains Nominal, PERIMETER_MID_ZN_1,313.42,16.9,18.579,5.382E-002,5.778,8.070,0.000,0.000,0.000,0.000,13.848,No
 Zone Internal Gains Nominal, PERIMETER_MID_ZN_4,201.98,10.9,18.579,5.382E-002,5.778,8.070,0.000,0.000,0.000,0.000,13.848,No
 Zone Internal Gains Nominal, PERIMETER_TOP_ZN_3,313.41,16.9,18.579,5.382E-002,5.778,8.070,0.000,0.000,0.000,0.000,13.848,No
 Zone Internal Gains Nominal, PERIMETER_TOP_ZN_2,201.98,10.9,18.579,5.382E-002,5.778,8.070,0.000,0.000,0.000,0.000,13.848,No
 Zone Internal Gains Nominal, PERIMETER_TOP_ZN_1,313.42,16.9,18.579,5.382E-002,5.778,8.070,0.000,0.000,0.000,0.000,13.848,No
 Zone Internal Gains Nominal, PERIMETER_TOP_ZN_4,201.98,10.9,18.579,5.382E-002,5.778,8.070,0.000,0.000,0.000,0.000,13.848,No
 Zone Internal Gains Nominal, GROUNDFLOOR_PLENUM,3563.11,0.0,N/A,0.000,0.000,0.000,0.000,0.000,0.000,0.000,0.000,No
 Zone Internal Gains Nominal, MIDFLOOR_PLENUM,3563.11,0.0,N/A,0.000,0.000,0.000,0.000,0.000,0.000,0.000,0.000,No
 Zone Internal Gains Nominal, TOPFLOOR_PLENUM,3563.11,0.0,N/A,0.000,0.000,0.000,0.000,0.000,0.000,0.000,0.000,No
 Zone Internal Gains Nominal, DATACENTER_BOT_ZN_6,36.20,1.9,18.579,5.382E-002,7.174,215.299,0.000,0.000,0.000,0.000,222.473,No
 Zone Internal Gains Nominal, DATACENTER_MID_ZN_6,36.20,1.9,18.579,5.382E-002,7.174,215.299,0.000,0.000,0.000,0.000,222.473,No
 Zone Internal Gains Nominal, DATACENTER_TOP_ZN_6,36.20,1.9,18.579,5.382E-002,7.174,215.299,0.000,0.000,0.000,0.000,222.473,No
 Zone Internal Gains Nominal, DATACENTER_BASEMENT_ZN_6,783.68,42.2,18.579,5.382E-002,5.778,484.423,0.000,0.000,0.000,0.000,490.201,No
! <People Internal Gains Nominal>,Name,Schedule Name,Zone Name,Zone Floor Area {m2},# Zone Occupants,Number of People {},People/Floor Area {person/m2},Floor Area per person {m2/person},Fraction Radiant,Fraction Convected,Sensible Fraction Calculation,Activity level,ASHRAE 55 Warnings,Carbon Dioxide Generation Rate,Minimum Number of People for All Day Types,Maximum Number of People for All Day Types,Minimum Number of People for Weekdays, Maximum Number of People for Weekdays, Minimum Number of People for Weekends/Holidays, Maximum Number of People for Weekends /Holidays,Minimum Number of People for Summer Design Days, Maximum Number of People for Summer Design Days,Minimum Number of People for Winter Design Days, Maximum Number of People for Winter Design Days,MRT Calculation Type,Work Efficiency, Clothing Insulation Calculation Method,Clothing Insulation Calculation Method Schedule,Clothing,Air Velocity,Fanger Calculation,Pierce Calculation,KSU Calculation,Cooling Effect Calculation,Ankle Draft Calculation
 People Internal Gains Nominal, DATACENTER_BOT_ZN_6,BLDG_OCC_SCH_WO_SB,DATACENTER_BOT_ZN_6,36.20,1.9,1.9,5.382E-002,18.579,0.300,0.700,AutoCalculate,ACTIVITY_SCH,No,3.8200E-008,0.0,1.9,0.0,1.9,0.0,0.6,1.9E-009,1.9,0.0,0.0,Zone Averaged,WORK_EFF_SCH,Clothing Insulation Schedule,N/A,CLOTHING_SCH,AIR_VELO_SCH,Yes,No,No,No,No
 People Internal Gains Nominal, DATACENTER_MID_ZN_6,BLDG_OCC_SCH_WO_SB,DATACENTER_MID_ZN_6,36.20,1.9,1.9,5.382E-002,18.579,0.300,0.700,AutoCalculate,ACTIVITY_SCH,No,3.8200E-008,0.0,1.9,0.0,1.9,0.0,0.6,1.9E-009,1.9,0.0,0.0,Zone Averaged,WORK_EFF_SCH,Clothing Insulation Schedule,N/A,CLOTHING_SCH,AIR_VELO_SCH,Yes,No,No,No,No
 People Internal Gains Nominal, DATACENTER_TOP_ZN_6,BLDG_OCC_SCH_WO_SB,DATACENTER_TOP_ZN_6,36.20,1.9,1.9,5.382E-002,18.579,0.300,0.700,AutoCalculate,ACTIVITY_SCH,No,3.8200E-008,0.0,1.9,0.0,1.9,0.0,0.6,1.9E-009,1.9,0.0,0.0,Zone Averaged,WORK_EFF_SCH,Clothing Insulation Schedule,N/A,CLOTHING_SCH,AIR_VELO_SCH,Yes,No,No,No,No
 People Internal Gains Nominal, DATACENTER_BASEMENT_ZN_6,BLDG_OCC_SCH_WO_SB,DATACENTER_BASEMENT_ZN_6,783.68,42.2,42.2,5.382E-002,18.579,0.300,0.700,AutoCalculate,ACTIVITY_SCH,No,3.8200E-008,0.0,42.2,0.0,41.9,0.0,13.2,4.2E-008,42.2,0.0,0.0,Zone Averaged,WORK_EFF_SCH,Clothing Insulation Schedule,N/A,CLOTHING_SCH,AIR_VELO_SCH,Yes,No,No,No,No
 People Internal Gains Nominal, BASEMENT,BLDG_OCC_SCH_WO_SB,BASEMENT,2779.43,149.6,149.6,5.382E-002,18.579,0.300,0.700,AutoCalculate,ACTIVITY_SCH,No,3.8200E-008,0.0,149.6,0.0,148.6,0.0,46.9,1.5E-007,149.6,0.0,0.0,Zone Averaged,WORK_EFF_SCH,Clothing Insulation Schedule,N/A,CLOTHING_SCH,AIR_VELO_SCH,Yes,No,No,No,No
 People Internal Gains Nominal, CORE_BOTTOM,BLDG_OCC_SCH_WO_SB,CORE_BOTTOM,2496.12,134.4,134.4,5.382E-002,18.579,0.300,0.700,AutoCalculate,ACTIVITY_SCH,No,3.8200E-008,0.0,134.4,0.0,133.5,0.0,42.1,1.3E-007,134.4,0.0,0.0,Zone Averaged,WORK_EFF_SCH,Clothing Insulation Schedule,N/A,CLOTHING_SCH,AIR_VELO_SCH,Yes,No,No,No,No
 People Internal Gains Nominal, CORE_MID,BLDG_OCC_SCH_WO_SB,CORE_MID,2496.12,134.4,134.4,5.382E-002,18.579,0.300,0.700,AutoCalculate,ACTIVITY_SCH,No,3.8200E-008,0.0,134.4,0.0,133.5,0.0,42.1,1.3E-007,134.4,0.0,0.0,Zone Averaged,WORK_EFF_SCH,Clothing Insulation Schedule,N/A,CLOTHING_SCH,AIR_VELO_SCH,Yes,No,No,No,No
 People Internal Gains Nominal, CORE_TOP,BLDG_OCC_SCH_WO_SB,CORE_TOP,2496.12,134.4,134.4,5.382E-002,18.579,0.300,0.700,AutoCalculate,ACTIVITY_SCH,No,3.8200E-008,0.0,134.4,0.0,133.5,0.0,42.1,1.3E-007,134.4,0.0,0.0,Zone Averaged,WORK_EFF_SCH,Clothing Insulation Schedule,N/A,CLOTHING_SCH,AIR_VELO_SCH,Yes,No,No,No,No
 People Internal Gains Nominal, PERIMETER_BOT_ZN_3,BLDG_OCC_SCH_WO_SB,PERIMETER_BOT_ZN_3,313.41,16.9,16.9,5.382E-002,18.579,0.300,0.700,AutoCalculate,ACTIVITY_SCH,No,3.8200E-008,0.0,16.9,0.0,16.8,0.0,5.3,1.7E-008,16.9,0.0,0.0,Zone Averaged,WORK_EFF_SCH,Clothing Insulation Schedule,N/A,CLOTHING_SCH,AIR_VELO_SCH,Yes,No,No,No,No
 People Internal Gains Nominal, PERIMETER_BOT_ZN_2,BLDG_OCC_SCH_WO_SB,PERIMETER_BOT_ZN_2,201.98,10.9,10.9,5.382E-002,18.579,0.300,0.700,AutoCalculate,ACTIVITY_SCH,No,3.8200E-008,0.0,10.9,0.0,10.8,0.0,3.4,1.1E-008,10.9,0.0,0.0,Zone Averaged,WORK_EFF_SCH,Clothing Insulation Schedule,N/A,CLOTHING_SCH,AIR_VELO_SCH,Yes,No,No,No,No
 People Internal Gains Nominal, PERIMETER_BOT_ZN_1,BLDG_OCC_SCH_WO_SB,PERIMETER_BOT_ZN_1,313.42,16.9,16.9,5.382E-002,18.579,0.300,0.700,AutoCalculate,ACTIVITY_SCH,No,3.8200E-008,0.0,16.9,0.0,16.8,0.0,5.3,1.7E-008,16.9,0.0,0.0,Zone Averaged,WORK_EFF_SCH,Clothing Insulation Schedule,N/A,CLOTHING_SCH,AIR_VELO_SCH,Yes,No,No,No,No
 People Internal Gains Nominal, PERIMETER_BOT_ZN_4,BLDG_OCC_SCH_WO_SB,PERIMETER_BOT_ZN_4,201.98,10.9,10.9,5.382E-002,18.579,0.300,0.700,AutoCalculate,ACTIVITY_SCH,No,3.8200E-008,0.0,10.9,0.0,10.8,0.0,3.4,1.1E-008,10.9,0.0,0.0,Zone Averaged,WORK_EFF_SCH,Clothing Insulation Schedule,N/A,CLOTHING_SCH,AIR_VELO_SCH,Yes,No,No,No,No
 People Internal Gains Nominal, PERIMETER_MID_ZN_3,BLDG_OCC_SCH_WO_SB,PERIMETER_MID_ZN_3,313.41,16.9,16.9,5.382E-002,18.579,0.300,0.700,AutoCalculate,ACTIVITY_SCH,No,3.8200E-008,0.0,16.9,0.0,16.8,0.0,5.3,1.7E-008,16.9,0.0,0.0,Zone Averaged,WORK_EFF_SCH,Clothing Insulation Schedule,N/A,CLOTHING_SCH,AIR_VELO_SCH,Yes,No,No,No,No
 People Internal Gains Nominal, PERIMETER_MID_ZN_2,BLDG_OCC_SCH_W_SB,PERIMETER_MID_ZN_2,201.98,10.9,10.9,5.382E-002,18.579,0.300,0.700,AutoCalculate,ACTIVITY_SCH,No,3.8200E-008,0.0,10.9,0.0,10.3,0.0,3.3,1.1E-008,10.9,0.0,0.0,Zone Averaged,WORK_EFF_SCH,Clothing Insulation Schedule,N/A,CLOTHING_SCH,AIR_VELO_SCH,Yes,No,No,No,No
 People Internal Gains Nominal, PERIMETER_MID_ZN_1,BLDG_OCC_SCH_WO_SB,PERIMETER_MID_ZN_1,313.42,16.9,16.9,5.382E-002,18.579,0.300,0.700,AutoCalculate,ACTIVITY_SCH,No,3.8200E-008,0.0,16.9,0.0,16.8,0.0,5.3,1.7E-008,16.9,0.0,0.0,Zone Averaged,WORK_EFF_SCH,Clothing Insulation Schedule,N/A,CLOTHING_SCH,AIR_VELO_SCH,Yes,No,No,No,No
 People Internal Gains Nominal, PERIMETER_MID_ZN_4,BLDG_OCC_SCH_WO_SB,PERIMETER_MID_ZN_4,201.98,10.9,10.9,5.382E-002,18.579,0.300,0.700,AutoCalculate,ACTIVITY_SCH,No,3.8200E-008,0.0,10.9,0.0,10.8,0.0,3.4,1.1E-008,10.9,0.0,0.0,Zone Averaged,WORK_EFF_SCH,Clothing Insulation Schedule,N/A,CLOTHING_SCH,AIR_VELO_SCH,Yes,No,No,No,No
 People Internal Gains Nominal, PERIMETER_TOP_ZN_3,BLDG_OCC_SCH_WO_SB,PERIMETER_TOP_ZN_3,313.41,16.9,16.9,5.382E-002,18.579,0.300,0.700,AutoCalculate,ACTIVITY_SCH,No,3.8200E-008,0.0,16.9,0.0,16.8,0.0,5.3,1.7E-008,16.9,0.0,0.0,Zone Averaged,WORK_EFF_SCH,Clothing Insulation Schedule,N/A,CLOTHING_SCH,AIR_VELO_SCH,Yes,No,No,No,No
 People Internal Gains Nominal, PERIMETER_TOP_ZN_2,BLDG_OCC_SCH_WO_SB,PERIMETER_TOP_ZN_2,201.98,10.9,10.9,5.382E-002,18.579,0.300,0.700,AutoCalculate,ACTIVITY_SCH,No,3.8200E-008,0.0,10.9,0.0,10.8,0.0,3.4,1.1E-008,10.9,0.0,0.0,Zone Averaged,WORK_EFF_SCH,Clothing Insulation Schedule,N/A,CLOTHING_SCH,AIR_VELO_SCH,Yes,No,No,No,No
 People Internal Gains Nominal, PERIMETER_TOP_ZN_1,BLDG_OCC_SCH_WO_SB,PERIMETER_TOP_ZN_1,313.42,16.9,16.9,5.382E-002,18.579,0.300,0.700,AutoCalculate,ACTIVITY_SCH,No,3.8200E-008,0.0,16.9,0.0,16.8,0.0,5.3,1.7E-008,16.9,0.0,0.0,Zone Averaged,WORK_EFF_SCH,Clothing Insulation Schedule,N/A,CLOTHING_SCH,AIR_VELO_SCH,Yes,No,No,No,No
 People Internal Gains Nominal, PERIMETER_TOP_ZN_4,BLDG_OCC_SCH_WO_SB,PERIMETER_TOP_ZN_4,201.98,10.9,10.9,5.382E-002,18.579,0.300,0.700,AutoCalculate,ACTIVITY_SCH,No,3.8200E-008,0.0,10.9,0.0,10.8,0.0,3.4,1.1E-008,10.9,0.0,0.0,Zone Averaged,WORK_EFF_SCH,Clothing Insulation Schedule,N/A,CLOTHING_SCH,AIR_VELO_SCH,Yes,No,No,No,No
! <Lights Internal Gains Nominal>,Name,Schedule Name,Zone Name,Zone Floor Area {m2},# Zone Occupants,Lighting Level {W},Lights/Floor Area {W/m2},Lights per person {W/person},Fraction Return Air,Fraction Radiant,Fraction Short Wave,Fraction Convected,Fraction Replaceable,End-Use, Minimum Lighting Level for All Day Types {W},Maximum Lighting Level for All Day Types {W},Minimum Lighting Level for Weekdays {W}, Maximum Lighting Level for Weekdays {W},Minimum Lighting Level for Weekends/Holidays {W}, Maximum Lighting Level for Weekends /Holidays {W},Minimum Lighting Level for Summer Design Days {W}, Maximum Lighting Level for Summer Design Days {W},Minimum Lighting Level for Winter Design Days {W}, Maximum Lighting Level for Winter Design Days {W}
 Lights Internal Gains Nominal, BASEMENT_LIGHTS,LTG_SCH_OFFICE,BASEMENT,2779.43,149.6,16058.301,5.778,107.340,0.000,0.700,0.200,0.100,1.000,LightsWired,0.000,16058.301,565.214,10174.1,565.214,3391.429,16058.301,16058.301,0.000,0.000
 Lights Internal Gains Nominal, CORE_BOTTOM_LIGHTS,LTG_SCH_OFFICE,CORE_BOTTOM,2496.12,134.4,14421.483,5.778,107.340,0.000,0.700,0.200,0.100,1.000,LightsWired,0.000,14421.483,507.602,9137.1,507.602,3045.742,14421.483,14421.483,0.000,0.000
 Lights Internal Gains Nominal, CORE_MID_LIGHTS,LTG_SCH_OFFICE,CORE_MID,2496.12,134.4,14421.483,5.778,107.340,0.000,0.700,0.200,0.100,1.000,LightsWired,0.000,14421.483,507.602,9137.1,507.602,3045.742,14421.483,14421.483,0.000,0.000
 Lights Internal Gains Nominal, CORE_TOP_LIGHTS,LTG_SCH_OFFICE,CORE_TOP,2496.12,134.4,14421.483,5.778,107.340,0.000,0.700,0.200,0.100,1.000,LightsWired,0.000,14421.483,507.602,9137.1,507.602,3045.742,14421.483,14421.483,0.000,0.000
 Lights Internal Gains Nominal, PERIMETER_BOT_ZN_3_LIGHTS,LTG_SCH_OFFICE,PERIMETER_BOT_ZN_3,313.41,16.9,1810.761,5.778,107.340,0.000,0.700,0.200,0.100,1.000,LightsWired,0.000,1810.761,63.734,1147.3,63.734,382.423,1810.761,1810.761,0.000,0.000
 Lights Internal Gains Nominal, PERIMETER_BOT_ZN_2_LIGHTS,LTG_SCH_OFFICE,PERIMETER_BOT_ZN_2,201.98,10.9,1166.923,5.778,107.340,0.000,0.700,0.200,0.100,1.000,LightsWired,0.000,1166.923,41.073,739.3,41.073,246.448,1166.923,1166.923,0.000,0.000
 Lights Internal Gains Nominal, PERIMETER_BOT_ZN_1_LIGHTS,LTG_SCH_OFFICE,PERIMETER_BOT_ZN_1,313.42,16.9,1810.801,5.778,107.340,0.000,0.700,0.200,0.100,1.000,LightsWired,0.000,1810.801,63.736,1147.3,63.736,382.432,1810.801,1810.801,0.000,0.000
 Lights Internal Gains Nominal, PERIMETER_BOT_ZN_4_LIGHTS,LTG_SCH_OFFICE,PERIMETER_BOT_ZN_4,201.98,10.9,1166.923,5.778,107.340,0.000,0.700,0.200,0.100,1.000,LightsWired,0.000,1166.923,41.073,739.3,41.073,246.448,1166.923,1166.923,0.000,0.000
 Lights Internal Gains Nominal, PERIMETER_MID_ZN_3_LIGHTS,LTG_SCH_OFFICE,PERIMETER_MID_ZN_3,313.41,16.9,1810.761,5.778,107.340,0.000,0.700,0.200,0.100,1.000,LightsWired,0.000,1810.761,63.734,1147.3,63.734,382.423,1810.761,1810.761,0.000,0.000
 Lights Internal Gains Nominal, PERIMETER_MID_ZN_2_LIGHTS,LTG_SCH_OFFICE,PERIMETER_MID_ZN_2,201.98,10.9,1166.923,5.778,107.340,0.000,0.700,0.200,0.100,1.000,LightsWired,0.000,1166.923,41.073,739.3,41.073,246.448,1166.923,1166.923,0.000,0.000
 Lights Internal Gains Nominal, PERIMETER_MID_ZN_1_LIGHTS,LTG_SCH_OFFICE,PERIMETER_MID_ZN_1,313.42,16.9,1810.801,5.778,107.340,0.000,0.700,0.200,0.100,1.000,LightsWired,0.000,1810.801,63.736,1147.3,63.736,382.432,1810.801,1810.801,0.000,0.000
 Lights Internal Gains Nominal, PERIMETER_MID_ZN_4_LIGHTS,LTG_SCH_OFFICE,PERIMETER_MID_ZN_4,201.98,10.9,1166.923,5.778,107.340,0.000,0.700,0.200,0.100,1.000,LightsWired,0.000,1166.923,41.073,739.3,41.073,246.448,1166.923,1166.923,0.000,0.000
 Lights Internal Gains Nominal, PERIMETER_TOP_ZN_3_LIGHTS,LTG_SCH_OFFICE,PERIMETER_TOP_ZN_3,313.41,16.9,1810.761,5.778,107.340,0.000,0.700,0.200,0.100,1.000,LightsWired,0.000,1810.761,63.734,1147.3,63.734,382.423,1810.761,1810.761,0.000,0.000
 Lights Internal Gains Nominal, PERIMETER_TOP_ZN_2_LIGHTS,LTG_SCH_OFFICE,PERIMETER_TOP_ZN_2,201.98,10.9,1166.923,5.778,107.340,0.000,0.700,0.200,0.100,1.000,LightsWired,0.000,1166.923,41.073,739.3,41.073,246.448,1166.923,1166.923,0.000,0.000
 Lights Internal Gains Nominal, PERIMETER_TOP_ZN_1_LIGHTS,LTG_SCH_OFFICE,PERIMETER_TOP_ZN_1,313.42,16.9,1810.801,5.778,107.340,0.000,0.700,0.200,0.100,1.000,LightsWired,0.000,1810.801,63.736,1147.3,63.736,382.432,1810.801,1810.801,0.000,0.000
 Lights Internal Gains Nominal, PERIMETER_TOP_ZN_4_LIGHTS,LTG_SCH_OFFICE,PERIMETER_TOP_ZN_4,201.98,10.9,1166.923,5.778,107.340,0.000,0.700,0.200,0.100,1.000,LightsWired,0.000,1166.923,41.073,739.3,41.073,246.448,1166.923,1166.923,0.000,0.000
 Lights Internal Gains Nominal, DATACENTER_BASEMENT_LIGHTS,LTG_SCH_OFFICE,DATACENTER_BASEMENT_ZN_6,783.68,42.2,4527.754,5.778,107.340,0.000,0.700,0.200,0.100,1.000,LightsWired,0.000,4527.754,159.366,2868.7,159.366,956.238,4527.754,4527.754,0.000,0.000
 Lights Internal Gains Nominal, DATACENTER_BOT_LIGHTS,LTG_SCH_DATACENTER,DATACENTER_BOT_ZN_6,36.20,1.9,259.704,7.174,133.277,0.000,0.700,0.200,0.100,1.000,LightsWired,0.000,259.704,8.129,146.3,8.129,48.773,259.704,259.704,0.000,0.000
 Lights Internal Gains Nominal, DATACENTER_MID_LIGHTS,LTG_SCH_DATACENTER,DATACENTER_MID_ZN_6,36.20,1.9,259.704,7.174,133.277,0.000,0.700,0.200,0.100,1.000,LightsWired,0.000,259.704,8.129,146.3,8.129,48.773,259.704,259.704,0.000,0.000
 Lights Internal Gains Nominal, DATACENTER_TOP_LIGHTS,LTG_SCH_DATACENTER,DATACENTER_TOP_ZN_6,36.20,1.9,259.704,7.174,133.277,0.000,0.700,0.200,0.100,1.000,LightsWired,0.000,259.704,8.129,146.3,8.129,48.773,259.704,259.704,0.000,0.000
! <ElectricEquipment Internal Gains Nominal>,Name,Schedule Name,Zone Name,Zone Floor Area {m2},# Zone Occupants,Equipment Level {W},Equipment/Floor Area {W/m2},Equipment per person {W/person},Fraction Latent,Fraction Radiant,Fraction Lost,Fraction Convected,End-Use SubCategory,Minimum Equipment Level for All Day Types {W},Maximum Equipment Level for All Day Types {W},Minimum Equipment Level for Weekdays {W}, Maximum Equipment Level for Weekdays {W},Minimum Equipment Level for Weekends/Holidays {W}, Maximum Equipment Level for Weekends /Holidays {W},Minimum Equipment Level for Summer Design Days {W}, Maximum Equipment Level for Summer Design Days {W},Minimum Equipment Level for Winter Design Days {W}, Maximum Equipment Level for Winter Design Days {W}
 ElectricEquipment Internal Gains Nominal, BASEMENT_MISCPLUG_EQUIP,ALWAYS_ON,BASEMENT,2779.43,149.6,13457.544,4.842,89.956,0.000,0.500,0.000,0.500,MiscPlug,13457.544,13457.544,13457.544,13457.544,13457.544,13457.544,13457.544,13457.544,13457.544,13457.544
 ElectricEquipment Internal Gains Nominal, CORE_BOTTOM_MISCPLUG_EQUIP,BLDG_EQUIP_SCH,CORE_BOTTOM,2496.12,134.4,20142.877,8.070,149.925,0.000,0.500,0.000,0.500,MiscPlug,0.000,20142.877,5937.645,17206.628,4453.234,9559.238,20142.877,20142.877,0.000,0.000
 ElectricEquipment Internal Gains Nominal, CORE_MID_MISCPLUG_EQUIP,BLDG_EQUIP_SCH,CORE_MID,2496.12,134.4,20142.800,8.070,149.924,0.000,0.500,0.000,0.500,MiscPlug,0.000,20142.800,5937.623,17206.563,4453.217,9559.201,20142.800,20142.800,0.000,0.000
 ElectricEquipment Internal Gains Nominal, CORE_TOP_MISCPLUG_EQUIP,BLDG_EQUIP_SCH,CORE_TOP,2496.12,134.4,20142.800,8.070,149.924,0.000,0.500,0.000,0.500,MiscPlug,0.000,20142.800,5937.623,17206.563,4453.217,9559.201,20142.800,20142.800,0.000,0.000
 ElectricEquipment Internal Gains Nominal, PERIMETER_BOT_ZN_3_MISCPLUG_EQUIP,BLDG_EQUIP_SCH,PERIMETER_BOT_ZN_3,313.41,16.9,2529.242,8.070,149.931,0.000,0.500,0.000,0.500,MiscPlug,0.000,2529.242,745.561,2160.552,559.171,1200.307,2529.242,2529.242,0.000,0.000
 ElectricEquipment Internal Gains Nominal, PERIMETER_BOT_ZN_2_MISCPLUG_EQUIP,BLDG_EQUIP_SCH,PERIMETER_BOT_ZN_2,201.98,10.9,1629.940,8.070,149.931,0.000,0.500,0.000,0.500,MiscPlug,0.000,1629.940,480.468,1392.342,360.351,773.523,1629.940,1629.940,0.000,0.000
 ElectricEquipment Internal Gains Nominal, PERIMETER_BOT_ZN_1_MISCPLUG_EQUIP,BLDG_EQUIP_SCH,PERIMETER_BOT_ZN_1,313.42,16.9,2529.281,8.070,149.930,0.000,0.500,0.000,0.500,MiscPlug,0.000,2529.281,745.572,2160.585,559.179,1200.325,2529.281,2529.281,0.000,0.000
 ElectricEquipment Internal Gains Nominal, PERIMETER_BOT_ZN_4_MISCPLUG_EQUIP,BLDG_EQUIP_SCH,PERIMETER_BOT_ZN_4,201.98,10.9,1629.929,8.070,149.930,0.000,0.500,0.000,0.500,MiscPlug,0.000,1629.929,480.465,1392.333,360.349,773.518,1629.929,1629.929,0.000,0.000
 ElectricEquipment Internal Gains Nominal, PERIMETER_MID_ZN_3_MISCPLUG_EQUIP,BLDG_EQUIP_SCH,PERIMETER_MID_ZN_3,313.41,16.9,2529.242,8.070,149.931,0.000,0.500,0.000,0.500,MiscPlug,0.000,2529.242,745.561,2160.552,559.171,1200.307,2529.242,2529.242,0.000,0.000
 ElectricEquipment Internal Gains Nominal, PERIMETER_MID_ZN_2_MISCPLUG_EQUIP,BLDG_EQUIP_SCH,PERIMETER_MID_ZN_2,201.98,10.9,1629.940,8.070,149.931,0.000,0.500,0.000,0.500,MiscPlug,0.000,1629.940,480.468,1392.342,360.351,773.523,1629.940,1629.940,0.000,0.000
 ElectricEquipment Internal Gains Nominal, PERIMETER_MID_ZN_1_MISCPLUG_EQUIP,BLDG_EQUIP_SCH,PERIMETER_MID_ZN_1,313.42,16.9,2529.281,8.070,149.930,0.000,0.500,0.000,0.500,MiscPlug,0.000,2529.281,745.572,2160.585,559.179,1200.325,2529.281,2529.281,0.000,0.000
 ElectricEquipment Internal Gains Nominal, PERIMETER_MID_ZN_4_MISCPLUG_EQUIP,BLDG_EQUIP_SCH,PERIMETER_MID_ZN_4,201.98,10.9,1629.929,8.070,149.930,0.000,0.500,0.000,0.500,MiscPlug,0.000,1629.929,480.465,1392.333,360.349,773.518,1629.929,1629.929,0.000,0.000
 ElectricEquipment Internal Gains Nominal, PERIMETER_TOP_ZN_3_MISCPLUG_EQUIP,BLDG_EQUIP_SCH,PERIMETER_TOP_ZN_3,313.41,16.9,2529.242,8.070,149.931,0.000,0.500,0.000,0.500,MiscPlug,0.000,2529.242,745.561,2160.552,559.171,1200.307,2529.242,2529.242,0.000,0.000
 ElectricEquipment Internal Gains Nominal, PERIMETER_TOP_ZN_2_MISCPLUG_EQUIP,BLDG_EQUIP_SCH,PERIMETER_TOP_ZN_2,201.98,10.9,1629.940,8.070,149.931,0.000,0.500,0.000,0.500,MiscPlug,0.000,1629.940,480.468,1392.342,360.351,773.523,1629.940,1629.940,0.000,0.000
 ElectricEquipment Internal Gains Nominal, PERIMETER_TOP_ZN_1_MISCPLUG_EQUIP,BLDG_EQUIP_SCH,PERIMETER_TOP_ZN_1,313.42,16.9,2529.281,8.070,149.930,0.000,0.500,0.000,0.500,MiscPlug,0.000,2529.281,745.572,2160.585,559.179,1200.325,2529.281,2529.281,0.000,0.000
 ElectricEquipment Internal Gains Nominal, PERIMETER_TOP_ZN_4_MISCPLUG_EQUIP,BLDG_EQUIP_SCH,PERIMETER_TOP_ZN_4,201.98,10.9,1629.929,8.070,149.930,0.000,0.500,0.000,0.500,MiscPlug,0.000,1629.929,480.465,1392.333,360.349,773.518,1629.929,1629.929,0.000,0.000
 ElectricEquipment Internal Gains Nominal, DATACENTER_BASEMENT_MISCPLUG_EQUIP,DATACENTER_EQUIP_SCH,DATACENTER_BASEMENT_ZN_6,783.68,42.2,379632.522,484.423,9000.000,0.000,0.100,0.000,0.900,DataCenterPlugLoads,94908.130,379632.522,94908.130,379632.522,94908.130,379632.522,379632.522,379632.522,94908.130,94908.130
 ElectricEquipment Internal Gains Nominal, DATACENTER_BOT_MISCPLUG_EQUIP,DATACENTER_EQUIP_SCH,DATACENTER_BOT_ZN_6,36.20,1.9,7794.422,215.299,4000.000,0.000,0.100,0.000,0.900,DataCenterPlugLoads,1948.606,7794.422,1948.606,7794.422,1948.606,7794.422,7794.422,7794.422,1948.606,1948.606
 ElectricEquipment Internal Gains Nominal, DATACENTER_MID_MISCPLUG_EQUIP,DATACENTER_EQUIP_SCH,DATACENTER_MID_ZN_6,36.20,1.9,7794.422,215.299,4000.000,0.000,0.100,0.000,0.900,DataCenterPlugLoads,1948.606,7794.422,1948.606,7794.422,1948.606,7794.422,7794.422,7794.422,1948.606,1948.606
 ElectricEquipment Internal Gains Nominal, DATACENTER_TOP_MISCPLUG_EQUIP,DATACENTER_EQUIP_SCH,DATACENTER_TOP_ZN_6,36.20,1.9,7794.422,215.299,4000.000,0.000,0.100,0.000,0.900,DataCenterPlugLoads,1948.606,7794.422,1948.606,7794.422,1948.606,7794.422,7794.422,7794.422,1948.606,1948.606
! <Enclosure/Window Adjacency Daylighting Counts>, Enclosure Name, Number of Exterior Windows, Number of Exterior Windows in Adjacent Enclosures
Enclosure/Window Adjacency Daylighting Counts, PERIMETER_BOT_ZN_3,5,0
Enclosure/Window Adjacency Daylighting Counts, PERIMETER_BOT_ZN_2,3,0
Enclosure/Window Adjacency Daylighting Counts, PERIMETER_BOT_ZN_1,5,0
Enclosure/Window Adjacency Daylighting Counts, PERIMETER_BOT_ZN_4,3,0
Enclosure/Window Adjacency Daylighting Counts, PERIMETER_MID_ZN_3,1,0
Enclosure/Window Adjacency Daylighting Counts, PERIMETER_MID_ZN_2,1,0
Enclosure/Window Adjacency Daylighting Counts, PERIMETER_MID_ZN_1,1,0
Enclosure/Window Adjacency Daylighting Counts, PERIMETER_MID_ZN_4,1,0
Enclosure/Window Adjacency Daylighting Counts, PERIMETER_TOP_ZN_3,1,0
Enclosure/Window Adjacency Daylighting Counts, PERIMETER_TOP_ZN_2,1,0
Enclosure/Window Adjacency Daylighting Counts, PERIMETER_TOP_ZN_1,1,0
Enclosure/Window Adjacency Daylighting Counts, PERIMETER_TOP_ZN_4,1,0
! <Enclosure/Window Adjacency Daylighting Matrix>, Enclosure Name, Number of Adjacent Enclosures with Windows,Adjacent Enclosure Names - 1st 100 (max)
Enclosure/Window Adjacency Daylighting Matrix, PERIMETER_BOT_ZN_3,0
Enclosure/Window Adjacency Daylighting Matrix, PERIMETER_BOT_ZN_2,0
Enclosure/Window Adjacency Daylighting Matrix, PERIMETER_BOT_ZN_1,0
Enclosure/Window Adjacency Daylighting Matrix, PERIMETER_BOT_ZN_4,0
Enclosure/Window Adjacency Daylighting Matrix, PERIMETER_MID_ZN_3,0
Enclosure/Window Adjacency Daylighting Matrix, PERIMETER_MID_ZN_2,0
Enclosure/Window Adjacency Daylighting Matrix, PERIMETER_MID_ZN_1,0
Enclosure/Window Adjacency Daylighting Matrix, PERIMETER_MID_ZN_4,0
Enclosure/Window Adjacency Daylighting Matrix, PERIMETER_TOP_ZN_3,0
Enclosure/Window Adjacency Daylighting Matrix, PERIMETER_TOP_ZN_2,0
Enclosure/Window Adjacency Daylighting Matrix, PERIMETER_TOP_ZN_1,0
Enclosure/Window Adjacency Daylighting Matrix, PERIMETER_TOP_ZN_4,0
! <ZoneInfiltration Airflow Stats Nominal>,Name,Schedule Name,Zone Name, Zone Floor Area {m2}, # Zone Occupants,Design Volume Flow Rate {m3/s},Volume Flow Rate/Floor Area {m3/s-m2},Volume Flow Rate/Exterior Surface Area {m3/s-m2},ACH - Air Changes per Hour,Equation A - Constant Term Coefficient {},Equation B - Temperature Term Coefficient {1/C},Equation C - Velocity Term Coefficient {s/m}, Equation D - Velocity Squared Term Coefficient {s2/m2}
 ZoneInfiltration Airflow Stats Nominal, PERIMETER_BOT_ZN_3_INFILTRATION,INFIL_SCH_PNNL,PERIMETER_BOT_ZN_3,313.41,16.9,0.114,3.646E-004,5.482E-004,0.478,0.000,0.000,0.224,0.000
 ZoneInfiltration Airflow Stats Nominal, PERIMETER_BOT_ZN_2_INFILTRATION,INFIL_SCH_PNNL,PERIMETER_BOT_ZN_2,201.98,10.9,7.617E-002,3.771E-004,5.534E-004,0.495,0.000,0.000,0.224,0.000
 ZoneInfiltration Airflow Stats Nominal, PERIMETER_BOT_ZN_1_INFILTRATION,INFIL_SCH_PNNL,PERIMETER_BOT_ZN_1,313.42,16.9,0.114,3.646E-004,5.482E-004,0.478,0.000,0.000,0.224,0.000
 ZoneInfiltration Airflow Stats Nominal, PERIMETER_BOT_ZN_4_INFILTRATION,INFIL_SCH_PNNL,PERIMETER_BOT_ZN_4,201.98,10.9,7.617E-002,3.771E-004,5.534E-004,0.495,0.000,0.000,0.224,0.000
 ZoneInfiltration Airflow Stats Nominal, PERIMETER_MID_ZN_3_INFILTRATION,INFIL_SCH_PNNL,PERIMETER_MID_ZN_3,313.41,16.9,0.114,3.646E-004,5.696E-004,0.478,0.000,0.000,0.224,0.000
 ZoneInfiltration Airflow Stats Nominal, PERIMETER_MID_ZN_2_INFILTRATION,INFIL_SCH_PNNL,PERIMETER_MID_ZN_2,201.98,10.9,7.617E-002,3.771E-004,5.696E-004,0.495,0.000,0.000,0.224,0.000
 ZoneInfiltration Airflow Stats Nominal, PERIMETER_MID_ZN_1_INFILTRATION,INFIL_SCH_PNNL,PERIMETER_MID_ZN_1,313.42,16.9,0.114,3.646E-004,5.696E-004,0.478,0.000,0.000,0.224,0.000
 ZoneInfiltration Airflow Stats Nominal, PERIMETER_MID_ZN_4_INFILTRATION,INFIL_SCH_PNNL,PERIMETER_MID_ZN_4,201.98,10.9,7.617E-002,3.771E-004,5.696E-004,0.495,0.000,0.000,0.224,0.000
 ZoneInfiltration Airflow Stats Nominal, PERIMETER_TOP_ZN_3_INFILTRATION,INFIL_SCH_PNNL,PERIMETER_TOP_ZN_3,313.41,16.9,0.114,3.646E-004,5.696E-004,0.478,0.000,0.000,0.224,0.000
 ZoneInfiltration Airflow Stats Nominal, PERIMETER_TOP_ZN_2_INFILTRATION,INFIL_SCH_PNNL,PERIMETER_TOP_ZN_2,201.98,10.9,7.617E-002,3.771E-004,5.696E-004,0.495,0.000,0.000,0.224,0.000
 ZoneInfiltration Airflow Stats Nominal, PERIMETER_TOP_ZN_1_INFILTRATION,INFIL_SCH_PNNL,PERIMETER_TOP_ZN_1,313.42,16.9,0.114,3.646E-004,5.696E-004,0.478,0.000,0.000,0.224,0.000
 ZoneInfiltration Airflow Stats Nominal, PERIMETER_TOP_ZN_4_INFILTRATION,INFIL_SCH_PNNL,PERIMETER_TOP_ZN_4,201.98,10.9,7.617E-002,3.771E-004,5.696E-004,0.495,0.000,0.000,0.224,0.000
 ZoneInfiltration Airflow Stats Nominal, GROUNDFLOOR_PLENUM_INFILTRATION,INFIL_SCH_PNNL,GROUNDFLOOR_PLENUM,3563.11,0.0,0.169,4.749E-005,5.696E-004,0.140,0.000,0.000,0.224,0.000
 ZoneInfiltration Airflow Stats Nominal, MIDFLOOR_PLENUM_INFILTRATION,INFIL_SCH_PNNL,MIDFLOOR_PLENUM,3563.11,0.0,0.169,4.749E-005,5.696E-004,0.140,0.000,0.000,0.224,0.000
 ZoneInfiltration Airflow Stats Nominal, TOPFLOOR_PLENUM_INFILTRATION,INFIL_SCH_PNNL,TOPFLOOR_PLENUM,3563.11,0.0,0.169,4.749E-005,4.384E-005,0.140,0.000,0.000,0.224,0.000
! <AirFlow Model>, Simple
 AirFlow Model, Simple
! <RoomAir Model>, Zone Name, Mixing/Mundt/UCSDDV/UCSDCV/UCSDUFI/UCSDUFE/User Defined
RoomAir Model,BASEMENT,Mixing/Well-Stirred
RoomAir Model,CORE_BOTTOM,Mixing/Well-Stirred
RoomAir Model,CORE_MID,Mixing/Well-Stirred
RoomAir Model,CORE_TOP,Mixing/Well-Stirred
RoomAir Model,PERIMETER_BOT_ZN_3,Mixing/Well-Stirred
RoomAir Model,PERIMETER_BOT_ZN_2,Mixing/Well-Stirred
RoomAir Model,PERIMETER_BOT_ZN_1,Mixing/Well-Stirred
RoomAir Model,PERIMETER_BOT_ZN_4,Mixing/Well-Stirred
RoomAir Model,PERIMETER_MID_ZN_3,Mixing/Well-Stirred
RoomAir Model,PERIMETER_MID_ZN_2,Mixing/Well-Stirred
RoomAir Model,PERIMETER_MID_ZN_1,Mixing/Well-Stirred
RoomAir Model,PERIMETER_MID_ZN_4,Mixing/Well-Stirred
RoomAir Model,PERIMETER_TOP_ZN_3,Mixing/Well-Stirred
RoomAir Model,PERIMETER_TOP_ZN_2,Mixing/Well-Stirred
RoomAir Model,PERIMETER_TOP_ZN_1,Mixing/Well-Stirred
RoomAir Model,PERIMETER_TOP_ZN_4,Mixing/Well-Stirred
RoomAir Model,GROUNDFLOOR_PLENUM,Mixing/Well-Stirred
RoomAir Model,MIDFLOOR_PLENUM,Mixing/Well-Stirred
RoomAir Model,TOPFLOOR_PLENUM,Mixing/Well-Stirred
RoomAir Model,DATACENTER_BOT_ZN_6,Mixing/Well-Stirred
RoomAir Model,DATACENTER_MID_ZN_6,Mixing/Well-Stirred
RoomAir Model,DATACENTER_TOP_ZN_6,Mixing/Well-Stirred
RoomAir Model,DATACENTER_BASEMENT_ZN_6,Mixing/Well-Stirred
! <AirflowNetwork Model:Control>, No Multizone or Distribution/Multizone with Distribution/Multizone without Distribution/Multizone with Distribution only during Fan Operation
AirflowNetwork Model:Control,NoMultizoneOrDistribution
! <Zone Volume Capacitance Multiplier>, Sensible Heat Capacity Multiplier, Moisture Capacity Multiplier, Carbon Dioxide Capacity Multiplier, Generic Contaminant Capacity Multiplier
Zone Volume Capacitance Multiplier,   1.000 ,   1.000,   1.000,   1.000
! <Zone Sizing DOAS Inputs>, Zone Name, DOAS Design Control Strategy, DOAS Design Low Setpoint Temperature {C}, DOAS Design High Setpoint Temperature {C} 
 Zone Sizing DOAS Inputs, CORE_BOTTOM, NeutralSupplyAir, 21.100, 23.900
 Zone Sizing DOAS Inputs, PERIMETER_BOT_ZN_3, NeutralSupplyAir, 21.100, 23.900
 Zone Sizing DOAS Inputs, PERIMETER_BOT_ZN_2, NeutralSupplyAir, 21.100, 23.900
 Zone Sizing DOAS Inputs, PERIMETER_BOT_ZN_1, NeutralSupplyAir, 21.100, 23.900
 Zone Sizing DOAS Inputs, PERIMETER_BOT_ZN_4, NeutralSupplyAir, 21.100, 23.900
 Zone Sizing DOAS Inputs, CORE_MID, NeutralSupplyAir, 21.100, 23.900
 Zone Sizing DOAS Inputs, PERIMETER_MID_ZN_3, NeutralSupplyAir, 21.100, 23.900
 Zone Sizing DOAS Inputs, PERIMETER_MID_ZN_2, NeutralSupplyAir, 21.100, 23.900
 Zone Sizing DOAS Inputs, PERIMETER_MID_ZN_1, NeutralSupplyAir, 21.100, 23.900
 Zone Sizing DOAS Inputs, PERIMETER_MID_ZN_4, NeutralSupplyAir, 21.100, 23.900
 Zone Sizing DOAS Inputs, CORE_TOP, NeutralSupplyAir, 21.100, 23.900
 Zone Sizing DOAS Inputs, PERIMETER_TOP_ZN_3, NeutralSupplyAir, 21.100, 23.900
 Zone Sizing DOAS Inputs, PERIMETER_TOP_ZN_2, NeutralSupplyAir, 21.100, 23.900
 Zone Sizing DOAS Inputs, PERIMETER_TOP_ZN_1, NeutralSupplyAir, 21.100, 23.900
 Zone Sizing DOAS Inputs, PERIMETER_TOP_ZN_4, NeutralSupplyAir, 21.100, 23.900
 Zone Sizing DOAS Inputs, BASEMENT, NeutralSupplyAir, 21.100, 23.900
 Zone Sizing DOAS Inputs, DATACENTER_BASEMENT_ZN_6, NeutralSupplyAir, 21.100, 23.900
 Zone Sizing DOAS Inputs, DATACENTER_BOT_ZN_6, NeutralSupplyAir, 21.100, 23.900
 Zone Sizing DOAS Inputs, DATACENTER_MID_ZN_6, NeutralSupplyAir, 21.100, 23.900
 Zone Sizing DOAS Inputs, DATACENTER_TOP_ZN_6, NeutralSupplyAir, 21.100, 23.900
! <Load Timesteps in Zone Design Calculation Averaging Window>, Value
 Load Timesteps in Zone Design Calculation Averaging Window,    6
! <Heating Sizing Factor Information>, Sizing Factor ID, Value
 Heating Sizing Factor Information, Global,   1.0000    
! <Cooling Sizing Factor Information>, Sizing Factor ID, Value
 Cooling Sizing Factor Information, Global,   1.0000    
! <Sky Daylight Factors>, Sky Type, MonthAndDay, Daylighting Control Name, Enclosure Name, Window Name, Reference Point, Daylight Factor
 Sky Daylight Factors,Clear Sky,01/21,PERIMETER_BOT_ZN_1_DAYLCTRL,PERIMETER_BOT_ZN_1,PERIMETER_BOT_ZN_1_WALL_SOUTH_WINDOW1,PERIMETER_BOT_ZN_1_DAYLREFPT1,6.3569E-003
 Sky Daylight Factors,Clear Sky,01/21,PERIMETER_BOT_ZN_1_DAYLCTRL,PERIMETER_BOT_ZN_1,PERIMETER_BOT_ZN_1_WALL_SOUTH_WINDOW1,PERIMETER_BOT_ZN_1_DAYLREFPT2,6.3590E-003
 Sky Daylight Factors,Clear Turbid Sky,01/21,PERIMETER_BOT_ZN_1_DAYLCTRL,PERIMETER_BOT_ZN_1,PERIMETER_BOT_ZN_1_WALL_SOUTH_WINDOW1,PERIMETER_BOT_ZN_1_DAYLREFPT1,6.9511E-003
 Sky Daylight Factors,Clear Turbid Sky,01/21,PERIMETER_BOT_ZN_1_DAYLCTRL,PERIMETER_BOT_ZN_1,PERIMETER_BOT_ZN_1_WALL_SOUTH_WINDOW1,PERIMETER_BOT_ZN_1_DAYLREFPT2,6.9529E-003
 Sky Daylight Factors,Intermediate Sky,01/21,PERIMETER_BOT_ZN_1_DAYLCTRL,PERIMETER_BOT_ZN_1,PERIMETER_BOT_ZN_1_WALL_SOUTH_WINDOW1,PERIMETER_BOT_ZN_1_DAYLREFPT1,4.5254E-003
 Sky Daylight Factors,Intermediate Sky,01/21,PERIMETER_BOT_ZN_1_DAYLCTRL,PERIMETER_BOT_ZN_1,PERIMETER_BOT_ZN_1_WALL_SOUTH_WINDOW1,PERIMETER_BOT_ZN_1_DAYLREFPT2,4.5268E-003
 Sky Daylight Factors,Overcast Sky,01/21,PERIMETER_BOT_ZN_1_DAYLCTRL,PERIMETER_BOT_ZN_1,PERIMETER_BOT_ZN_1_WALL_SOUTH_WINDOW1,PERIMETER_BOT_ZN_1_DAYLREFPT1,2.4917E-003
 Sky Daylight Factors,Overcast Sky,01/21,PERIMETER_BOT_ZN_1_DAYLCTRL,PERIMETER_BOT_ZN_1,PERIMETER_BOT_ZN_1_WALL_SOUTH_WINDOW1,PERIMETER_BOT_ZN_1_DAYLREFPT2,2.4924E-003
 Sky Daylight Factors,Clear Sky,01/21,PERIMETER_BOT_ZN_1_DAYLCTRL,PERIMETER_BOT_ZN_1,PERIMETER_BOT_ZN_1_WALL_SOUTH_WINDOW2,PERIMETER_BOT_ZN_1_DAYLREFPT1,6.4051E-003
 Sky Daylight Factors,Clear Sky,01/21,PERIMETER_BOT_ZN_1_DAYLCTRL,PERIMETER_BOT_ZN_1,PERIMETER_BOT_ZN_1_WALL_SOUTH_WINDOW2,PERIMETER_BOT_ZN_1_DAYLREFPT2,6.5483E-003
 Sky Daylight Factors,Clear Turbid Sky,01/21,PERIMETER_BOT_ZN_1_DAYLCTRL,PERIMETER_BOT_ZN_1,PERIMETER_BOT_ZN_1_WALL_SOUTH_WINDOW2,PERIMETER_BOT_ZN_1_DAYLREFPT1,6.9918E-003
 Sky Daylight Factors,Clear Turbid Sky,01/21,PERIMETER_BOT_ZN_1_DAYLCTRL,PERIMETER_BOT_ZN_1,PERIMETER_BOT_ZN_1_WALL_SOUTH_WINDOW2,PERIMETER_BOT_ZN_1_DAYLREFPT2,7.1170E-003
 Sky Daylight Factors,Intermediate Sky,01/21,PERIMETER_BOT_ZN_1_DAYLCTRL,PERIMETER_BOT_ZN_1,PERIMETER_BOT_ZN_1_WALL_SOUTH_WINDOW2,PERIMETER_BOT_ZN_1_DAYLREFPT1,4.5603E-003
 Sky Daylight Factors,Intermediate Sky,01/21,PERIMETER_BOT_ZN_1_DAYLCTRL,PERIMETER_BOT_ZN_1,PERIMETER_BOT_ZN_1_WALL_SOUTH_WINDOW2,PERIMETER_BOT_ZN_1_DAYLREFPT2,4.6638E-003
 Sky Daylight Factors,Overcast Sky,01/21,PERIMETER_BOT_ZN_1_DAYLCTRL,PERIMETER_BOT_ZN_1,PERIMETER_BOT_ZN_1_WALL_SOUTH_WINDOW2,PERIMETER_BOT_ZN_1_DAYLREFPT1,2.5122E-003
 Sky Daylight Factors,Overcast Sky,01/21,PERIMETER_BOT_ZN_1_DAYLCTRL,PERIMETER_BOT_ZN_1,PERIMETER_BOT_ZN_1_WALL_SOUTH_WINDOW2,PERIMETER_BOT_ZN_1_DAYLREFPT2,2.5645E-003
 Sky Daylight Factors,Clear Sky,01/21,PERIMETER_BOT_ZN_1_DAYLCTRL,PERIMETER_BOT_ZN_1,PERIMETER_BOT_ZN_1_WALL_SOUTH_WINDOW3,PERIMETER_BOT_ZN_1_DAYLREFPT1,0.1579
 Sky Daylight Factors,Clear Sky,01/21,PERIMETER_BOT_ZN_1_DAYLCTRL,PERIMETER_BOT_ZN_1,PERIMETER_BOT_ZN_1_WALL_SOUTH_WINDOW3,PERIMETER_BOT_ZN_1_DAYLREFPT2,7.5943E-002
 Sky Daylight Factors,Clear Turbid Sky,01/21,PERIMETER_BOT_ZN_1_DAYLCTRL,PERIMETER_BOT_ZN_1,PERIMETER_BOT_ZN_1_WALL_SOUTH_WINDOW3,PERIMETER_BOT_ZN_1_DAYLREFPT1,0.1783
 Sky Daylight Factors,Clear Turbid Sky,01/21,PERIMETER_BOT_ZN_1_DAYLCTRL,PERIMETER_BOT_ZN_1,PERIMETER_BOT_ZN_1_WALL_SOUTH_WINDOW3,PERIMETER_BOT_ZN_1_DAYLREFPT2,8.5187E-002
 Sky Daylight Factors,Intermediate Sky,01/21,PERIMETER_BOT_ZN_1_DAYLCTRL,PERIMETER_BOT_ZN_1,PERIMETER_BOT_ZN_1_WALL_SOUTH_WINDOW3,PERIMETER_BOT_ZN_1_DAYLREFPT1,0.1115
 Sky Daylight Factors,Intermediate Sky,01/21,PERIMETER_BOT_ZN_1_DAYLCTRL,PERIMETER_BOT_ZN_1,PERIMETER_BOT_ZN_1_WALL_SOUTH_WINDOW3,PERIMETER_BOT_ZN_1_DAYLREFPT2,4.4149E-002
 Sky Daylight Factors,Overcast Sky,01/21,PERIMETER_BOT_ZN_1_DAYLCTRL,PERIMETER_BOT_ZN_1,PERIMETER_BOT_ZN_1_WALL_SOUTH_WINDOW3,PERIMETER_BOT_ZN_1_DAYLREFPT1,4.5025E-002
 Sky Daylight Factors,Overcast Sky,01/21,PERIMETER_BOT_ZN_1_DAYLCTRL,PERIMETER_BOT_ZN_1,PERIMETER_BOT_ZN_1_WALL_SOUTH_WINDOW3,PERIMETER_BOT_ZN_1_DAYLREFPT2,1.5661E-002
 Sky Daylight Factors,Clear Sky,01/21,PERIMETER_BOT_ZN_1_DAYLCTRL,PERIMETER_BOT_ZN_1,PERIMETER_BOT_ZN_1_WALL_SOUTH_WINDOW4,PERIMETER_BOT_ZN_1_DAYLREFPT1,6.4078E-003
 Sky Daylight Factors,Clear Sky,01/21,PERIMETER_BOT_ZN_1_DAYLCTRL,PERIMETER_BOT_ZN_1,PERIMETER_BOT_ZN_1_WALL_SOUTH_WINDOW4,PERIMETER_BOT_ZN_1_DAYLREFPT2,6.5608E-003
 Sky Daylight Factors,Clear Turbid Sky,01/21,PERIMETER_BOT_ZN_1_DAYLCTRL,PERIMETER_BOT_ZN_1,PERIMETER_BOT_ZN_1_WALL_SOUTH_WINDOW4,PERIMETER_BOT_ZN_1_DAYLREFPT1,6.9945E-003
 Sky Daylight Factors,Clear Turbid Sky,01/21,PERIMETER_BOT_ZN_1_DAYLCTRL,PERIMETER_BOT_ZN_1,PERIMETER_BOT_ZN_1_WALL_SOUTH_WINDOW4,PERIMETER_BOT_ZN_1_DAYLREFPT2,7.1301E-003
 Sky Daylight Factors,Intermediate Sky,01/21,PERIMETER_BOT_ZN_1_DAYLCTRL,PERIMETER_BOT_ZN_1,PERIMETER_BOT_ZN_1_WALL_SOUTH_WINDOW4,PERIMETER_BOT_ZN_1_DAYLREFPT1,4.5626E-003
 Sky Daylight Factors,Intermediate Sky,01/21,PERIMETER_BOT_ZN_1_DAYLCTRL,PERIMETER_BOT_ZN_1,PERIMETER_BOT_ZN_1_WALL_SOUTH_WINDOW4,PERIMETER_BOT_ZN_1_DAYLREFPT2,4.6727E-003
 Sky Daylight Factors,Overcast Sky,01/21,PERIMETER_BOT_ZN_1_DAYLCTRL,PERIMETER_BOT_ZN_1,PERIMETER_BOT_ZN_1_WALL_SOUTH_WINDOW4,PERIMETER_BOT_ZN_1_DAYLREFPT1,2.5127E-003
 Sky Daylight Factors,Overcast Sky,01/21,PERIMETER_BOT_ZN_1_DAYLCTRL,PERIMETER_BOT_ZN_1,PERIMETER_BOT_ZN_1_WALL_SOUTH_WINDOW4,PERIMETER_BOT_ZN_1_DAYLREFPT2,2.5660E-003
 Sky Daylight Factors,Clear Sky,01/21,PERIMETER_BOT_ZN_1_DAYLCTRL,PERIMETER_BOT_ZN_1,PERIMETER_BOT_ZN_1_WALL_SOUTH_WINDOW5,PERIMETER_BOT_ZN_1_DAYLREFPT1,6.3567E-003
 Sky Daylight Factors,Clear Sky,01/21,PERIMETER_BOT_ZN_1_DAYLCTRL,PERIMETER_BOT_ZN_1,PERIMETER_BOT_ZN_1_WALL_SOUTH_WINDOW5,PERIMETER_BOT_ZN_1_DAYLREFPT2,6.3588E-003
 Sky Daylight Factors,Clear Turbid Sky,01/21,PERIMETER_BOT_ZN_1_DAYLCTRL,PERIMETER_BOT_ZN_1,PERIMETER_BOT_ZN_1_WALL_SOUTH_WINDOW5,PERIMETER_BOT_ZN_1_DAYLREFPT1,6.9509E-003
 Sky Daylight Factors,Clear Turbid Sky,01/21,PERIMETER_BOT_ZN_1_DAYLCTRL,PERIMETER_BOT_ZN_1,PERIMETER_BOT_ZN_1_WALL_SOUTH_WINDOW5,PERIMETER_BOT_ZN_1_DAYLREFPT2,6.9527E-003
 Sky Daylight Factors,Intermediate Sky,01/21,PERIMETER_BOT_ZN_1_DAYLCTRL,PERIMETER_BOT_ZN_1,PERIMETER_BOT_ZN_1_WALL_SOUTH_WINDOW5,PERIMETER_BOT_ZN_1_DAYLREFPT1,4.5252E-003
 Sky Daylight Factors,Intermediate Sky,01/21,PERIMETER_BOT_ZN_1_DAYLCTRL,PERIMETER_BOT_ZN_1,PERIMETER_BOT_ZN_1_WALL_SOUTH_WINDOW5,PERIMETER_BOT_ZN_1_DAYLREFPT2,4.5267E-003
 Sky Daylight Factors,Overcast Sky,01/21,PERIMETER_BOT_ZN_1_DAYLCTRL,PERIMETER_BOT_ZN_1,PERIMETER_BOT_ZN_1_WALL_SOUTH_WINDOW5,PERIMETER_BOT_ZN_1_DAYLREFPT1,2.4916E-003
 Sky Daylight Factors,Overcast Sky,01/21,PERIMETER_BOT_ZN_1_DAYLCTRL,PERIMETER_BOT_ZN_1,PERIMETER_BOT_ZN_1_WALL_SOUTH_WINDOW5,PERIMETER_BOT_ZN_1_DAYLREFPT2,2.4923E-003
 Sky Daylight Factors,Clear Sky,01/21,PERIMETER_BOT_ZN_2_DAYLCTRL,PERIMETER_BOT_ZN_2,PERIMETER_BOT_ZN_2_WALL_EAST_WINDOW1,PERIMETER_BOT_ZN_2_DAYLREFPT1,5.4525E-003
 Sky Daylight Factors,Clear Sky,01/21,PERIMETER_BOT_ZN_2_DAYLCTRL,PERIMETER_BOT_ZN_2,PERIMETER_BOT_ZN_2_WALL_EAST_WINDOW1,PERIMETER_BOT_ZN_2_DAYLREFPT2,5.7393E-003
 Sky Daylight Factors,Clear Turbid Sky,01/21,PERIMETER_BOT_ZN_2_DAYLCTRL,PERIMETER_BOT_ZN_2,PERIMETER_BOT_ZN_2_WALL_EAST_WINDOW1,PERIMETER_BOT_ZN_2_DAYLREFPT1,5.1616E-003
 Sky Daylight Factors,Clear Turbid Sky,01/21,PERIMETER_BOT_ZN_2_DAYLCTRL,PERIMETER_BOT_ZN_2,PERIMETER_BOT_ZN_2_WALL_EAST_WINDOW1,PERIMETER_BOT_ZN_2_DAYLREFPT2,5.4743E-003
 Sky Daylight Factors,Intermediate Sky,01/21,PERIMETER_BOT_ZN_2_DAYLCTRL,PERIMETER_BOT_ZN_2,PERIMETER_BOT_ZN_2_WALL_EAST_WINDOW1,PERIMETER_BOT_ZN_2_DAYLREFPT1,4.9559E-003
 Sky Daylight Factors,Intermediate Sky,01/21,PERIMETER_BOT_ZN_2_DAYLCTRL,PERIMETER_BOT_ZN_2,PERIMETER_BOT_ZN_2_WALL_EAST_WINDOW1,PERIMETER_BOT_ZN_2_DAYLREFPT2,5.0822E-003
 Sky Daylight Factors,Overcast Sky,01/21,PERIMETER_BOT_ZN_2_DAYLCTRL,PERIMETER_BOT_ZN_2,PERIMETER_BOT_ZN_2_WALL_EAST_WINDOW1,PERIMETER_BOT_ZN_2_DAYLREFPT1,4.2602E-003
 Sky Daylight Factors,Overcast Sky,01/21,PERIMETER_BOT_ZN_2_DAYLCTRL,PERIMETER_BOT_ZN_2,PERIMETER_BOT_ZN_2_WALL_EAST_WINDOW1,PERIMETER_BOT_ZN_2_DAYLREFPT2,4.2962E-003
 Sky Daylight Factors,Clear Sky,01/21,PERIMETER_BOT_ZN_2_DAYLCTRL,PERIMETER_BOT_ZN_2,PERIMETER_BOT_ZN_2_WALL_EAST_WINDOW2,PERIMETER_BOT_ZN_2_DAYLREFPT1,6.0027E-002
 Sky Daylight Factors,Clear Sky,01/21,PERIMETER_BOT_ZN_2_DAYLCTRL,PERIMETER_BOT_ZN_2,PERIMETER_BOT_ZN_2_WALL_EAST_WINDOW2,PERIMETER_BOT_ZN_2_DAYLREFPT2,2.9330E-002
 Sky Daylight Factors,Clear Turbid Sky,01/21,PERIMETER_BOT_ZN_2_DAYLCTRL,PERIMETER_BOT_ZN_2,PERIMETER_BOT_ZN_2_WALL_EAST_WINDOW2,PERIMETER_BOT_ZN_2_DAYLREFPT1,5.5444E-002
 Sky Daylight Factors,Clear Turbid Sky,01/21,PERIMETER_BOT_ZN_2_DAYLCTRL,PERIMETER_BOT_ZN_2,PERIMETER_BOT_ZN_2_WALL_EAST_WINDOW2,PERIMETER_BOT_ZN_2_DAYLREFPT2,2.6356E-002
 Sky Daylight Factors,Intermediate Sky,01/21,PERIMETER_BOT_ZN_2_DAYLCTRL,PERIMETER_BOT_ZN_2,PERIMETER_BOT_ZN_2_WALL_EAST_WINDOW2,PERIMETER_BOT_ZN_2_DAYLREFPT1,5.8814E-002
 Sky Daylight Factors,Intermediate Sky,01/21,PERIMETER_BOT_ZN_2_DAYLCTRL,PERIMETER_BOT_ZN_2,PERIMETER_BOT_ZN_2_WALL_EAST_WINDOW2,PERIMETER_BOT_ZN_2_DAYLREFPT2,2.4384E-002
 Sky Daylight Factors,Overcast Sky,01/21,PERIMETER_BOT_ZN_2_DAYLCTRL,PERIMETER_BOT_ZN_2,PERIMETER_BOT_ZN_2_WALL_EAST_WINDOW2,PERIMETER_BOT_ZN_2_DAYLREFPT1,4.6880E-002
 Sky Daylight Factors,Overcast Sky,01/21,PERIMETER_BOT_ZN_2_DAYLCTRL,PERIMETER_BOT_ZN_2,PERIMETER_BOT_ZN_2_WALL_EAST_WINDOW2,PERIMETER_BOT_ZN_2_DAYLREFPT2,1.7537E-002
 Sky Daylight Factors,Clear Sky,01/21,PERIMETER_BOT_ZN_2_DAYLCTRL,PERIMETER_BOT_ZN_2,PERIMETER_BOT_ZN_2_WALL_EAST_WINDOW3,PERIMETER_BOT_ZN_2_DAYLREFPT1,5.3654E-003
 Sky Daylight Factors,Clear Sky,01/21,PERIMETER_BOT_ZN_2_DAYLCTRL,PERIMETER_BOT_ZN_2,PERIMETER_BOT_ZN_2_WALL_EAST_WINDOW3,PERIMETER_BOT_ZN_2_DAYLREFPT2,5.4663E-003
 Sky Daylight Factors,Clear Turbid Sky,01/21,PERIMETER_BOT_ZN_2_DAYLCTRL,PERIMETER_BOT_ZN_2,PERIMETER_BOT_ZN_2_WALL_EAST_WINDOW3,PERIMETER_BOT_ZN_2_DAYLREFPT1,5.0490E-003
 Sky Daylight Factors,Clear Turbid Sky,01/21,PERIMETER_BOT_ZN_2_DAYLCTRL,PERIMETER_BOT_ZN_2,PERIMETER_BOT_ZN_2_WALL_EAST_WINDOW3,PERIMETER_BOT_ZN_2_DAYLREFPT2,5.1220E-003
 Sky Daylight Factors,Intermediate Sky,01/21,PERIMETER_BOT_ZN_2_DAYLCTRL,PERIMETER_BOT_ZN_2,PERIMETER_BOT_ZN_2_WALL_EAST_WINDOW3,PERIMETER_BOT_ZN_2_DAYLREFPT1,4.9156E-003
 Sky Daylight Factors,Intermediate Sky,01/21,PERIMETER_BOT_ZN_2_DAYLCTRL,PERIMETER_BOT_ZN_2,PERIMETER_BOT_ZN_2_WALL_EAST_WINDOW3,PERIMETER_BOT_ZN_2_DAYLREFPT2,4.9438E-003
 Sky Daylight Factors,Overcast Sky,01/21,PERIMETER_BOT_ZN_2_DAYLCTRL,PERIMETER_BOT_ZN_2,PERIMETER_BOT_ZN_2_WALL_EAST_WINDOW3,PERIMETER_BOT_ZN_2_DAYLREFPT1,4.2603E-003
 Sky Daylight Factors,Overcast Sky,01/21,PERIMETER_BOT_ZN_2_DAYLCTRL,PERIMETER_BOT_ZN_2,PERIMETER_BOT_ZN_2_WALL_EAST_WINDOW3,PERIMETER_BOT_ZN_2_DAYLREFPT2,4.2968E-003
 Sky Daylight Factors,Clear Sky,01/21,PERIMETER_BOT_ZN_3_DAYLCTRL,PERIMETER_BOT_ZN_3,PERIMETER_BOT_ZN_3_WALL_NORTH_WINDOW1,PERIMETER_BOT_ZN_3_DAYLREFPT1,2.5875E-003
 Sky Daylight Factors,Clear Sky,01/21,PERIMETER_BOT_ZN_3_DAYLCTRL,PERIMETER_BOT_ZN_3,PERIMETER_BOT_ZN_3_WALL_NORTH_WINDOW1,PERIMETER_BOT_ZN_3_DAYLREFPT2,2.5895E-003
 Sky Daylight Factors,Clear Turbid Sky,01/21,PERIMETER_BOT_ZN_3_DAYLCTRL,PERIMETER_BOT_ZN_3,PERIMETER_BOT_ZN_3_WALL_NORTH_WINDOW1,PERIMETER_BOT_ZN_3_DAYLREFPT1,2.1978E-003
 Sky Daylight Factors,Clear Turbid Sky,01/21,PERIMETER_BOT_ZN_3_DAYLCTRL,PERIMETER_BOT_ZN_3,PERIMETER_BOT_ZN_3_WALL_NORTH_WINDOW1,PERIMETER_BOT_ZN_3_DAYLREFPT2,2.1994E-003
 Sky Daylight Factors,Intermediate Sky,01/21,PERIMETER_BOT_ZN_3_DAYLCTRL,PERIMETER_BOT_ZN_3,PERIMETER_BOT_ZN_3_WALL_NORTH_WINDOW1,PERIMETER_BOT_ZN_3_DAYLREFPT1,1.9464E-003
 Sky Daylight Factors,Intermediate Sky,01/21,PERIMETER_BOT_ZN_3_DAYLCTRL,PERIMETER_BOT_ZN_3,PERIMETER_BOT_ZN_3_WALL_NORTH_WINDOW1,PERIMETER_BOT_ZN_3_DAYLREFPT2,1.9475E-003
 Sky Daylight Factors,Overcast Sky,01/21,PERIMETER_BOT_ZN_3_DAYLCTRL,PERIMETER_BOT_ZN_3,PERIMETER_BOT_ZN_3_WALL_NORTH_WINDOW1,PERIMETER_BOT_ZN_3_DAYLREFPT1,2.4917E-003
 Sky Daylight Factors,Overcast Sky,01/21,PERIMETER_BOT_ZN_3_DAYLCTRL,PERIMETER_BOT_ZN_3,PERIMETER_BOT_ZN_3_WALL_NORTH_WINDOW1,PERIMETER_BOT_ZN_3_DAYLREFPT2,2.4925E-003
 Sky Daylight Factors,Clear Sky,01/21,PERIMETER_BOT_ZN_3_DAYLCTRL,PERIMETER_BOT_ZN_3,PERIMETER_BOT_ZN_3_WALL_NORTH_WINDOW2,PERIMETER_BOT_ZN_3_DAYLREFPT1,2.6326E-003
 Sky Daylight Factors,Clear Sky,01/21,PERIMETER_BOT_ZN_3_DAYLCTRL,PERIMETER_BOT_ZN_3,PERIMETER_BOT_ZN_3_WALL_NORTH_WINDOW2,PERIMETER_BOT_ZN_3_DAYLREFPT2,2.7498E-003
 Sky Daylight Factors,Clear Turbid Sky,01/21,PERIMETER_BOT_ZN_3_DAYLCTRL,PERIMETER_BOT_ZN_3,PERIMETER_BOT_ZN_3_WALL_NORTH_WINDOW2,PERIMETER_BOT_ZN_3_DAYLREFPT1,2.2344E-003
 Sky Daylight Factors,Clear Turbid Sky,01/21,PERIMETER_BOT_ZN_3_DAYLCTRL,PERIMETER_BOT_ZN_3,PERIMETER_BOT_ZN_3_WALL_NORTH_WINDOW2,PERIMETER_BOT_ZN_3_DAYLREFPT2,2.3268E-003
 Sky Daylight Factors,Intermediate Sky,01/21,PERIMETER_BOT_ZN_3_DAYLCTRL,PERIMETER_BOT_ZN_3,PERIMETER_BOT_ZN_3_WALL_NORTH_WINDOW2,PERIMETER_BOT_ZN_3_DAYLREFPT1,1.9759E-003
 Sky Daylight Factors,Intermediate Sky,01/21,PERIMETER_BOT_ZN_3_DAYLCTRL,PERIMETER_BOT_ZN_3,PERIMETER_BOT_ZN_3_WALL_NORTH_WINDOW2,PERIMETER_BOT_ZN_3_DAYLREFPT2,2.0415E-003
 Sky Daylight Factors,Overcast Sky,01/21,PERIMETER_BOT_ZN_3_DAYLCTRL,PERIMETER_BOT_ZN_3,PERIMETER_BOT_ZN_3_WALL_NORTH_WINDOW2,PERIMETER_BOT_ZN_3_DAYLREFPT1,2.5127E-003
 Sky Daylight Factors,Overcast Sky,01/21,PERIMETER_BOT_ZN_3_DAYLCTRL,PERIMETER_BOT_ZN_3,PERIMETER_BOT_ZN_3_WALL_NORTH_WINDOW2,PERIMETER_BOT_ZN_3_DAYLREFPT2,2.5660E-003
 Sky Daylight Factors,Clear Sky,01/21,PERIMETER_BOT_ZN_3_DAYLCTRL,PERIMETER_BOT_ZN_3,PERIMETER_BOT_ZN_3_WALL_NORTH_WINDOW3,PERIMETER_BOT_ZN_3_DAYLREFPT1,4.1313E-002
 Sky Daylight Factors,Clear Sky,01/21,PERIMETER_BOT_ZN_3_DAYLCTRL,PERIMETER_BOT_ZN_3,PERIMETER_BOT_ZN_3_WALL_NORTH_WINDOW3,PERIMETER_BOT_ZN_3_DAYLREFPT2,2.1799E-002
 Sky Daylight Factors,Clear Turbid Sky,01/21,PERIMETER_BOT_ZN_3_DAYLCTRL,PERIMETER_BOT_ZN_3,PERIMETER_BOT_ZN_3_WALL_NORTH_WINDOW3,PERIMETER_BOT_ZN_3_DAYLREFPT1,3.1624E-002
 Sky Daylight Factors,Clear Turbid Sky,01/21,PERIMETER_BOT_ZN_3_DAYLCTRL,PERIMETER_BOT_ZN_3,PERIMETER_BOT_ZN_3_WALL_NORTH_WINDOW3,PERIMETER_BOT_ZN_3_DAYLREFPT2,1.6479E-002
 Sky Daylight Factors,Intermediate Sky,01/21,PERIMETER_BOT_ZN_3_DAYLCTRL,PERIMETER_BOT_ZN_3,PERIMETER_BOT_ZN_3_WALL_NORTH_WINDOW3,PERIMETER_BOT_ZN_3_DAYLREFPT1,2.8556E-002
 Sky Daylight Factors,Intermediate Sky,01/21,PERIMETER_BOT_ZN_3_DAYLCTRL,PERIMETER_BOT_ZN_3,PERIMETER_BOT_ZN_3_WALL_NORTH_WINDOW3,PERIMETER_BOT_ZN_3_DAYLREFPT2,1.1125E-002
 Sky Daylight Factors,Overcast Sky,01/21,PERIMETER_BOT_ZN_3_DAYLCTRL,PERIMETER_BOT_ZN_3,PERIMETER_BOT_ZN_3_WALL_NORTH_WINDOW3,PERIMETER_BOT_ZN_3_DAYLREFPT1,4.5025E-002
 Sky Daylight Factors,Overcast Sky,01/21,PERIMETER_BOT_ZN_3_DAYLCTRL,PERIMETER_BOT_ZN_3,PERIMETER_BOT_ZN_3_WALL_NORTH_WINDOW3,PERIMETER_BOT_ZN_3_DAYLREFPT2,1.5656E-002
 Sky Daylight Factors,Clear Sky,01/21,PERIMETER_BOT_ZN_3_DAYLCTRL,PERIMETER_BOT_ZN_3,PERIMETER_BOT_ZN_3_WALL_NORTH_WINDOW4,PERIMETER_BOT_ZN_3_DAYLREFPT1,2.6313E-003
 Sky Daylight Factors,Clear Sky,01/21,PERIMETER_BOT_ZN_3_DAYLCTRL,PERIMETER_BOT_ZN_3,PERIMETER_BOT_ZN_3_WALL_NORTH_WINDOW4,PERIMETER_BOT_ZN_3_DAYLREFPT2,2.7471E-003
 Sky Daylight Factors,Clear Turbid Sky,01/21,PERIMETER_BOT_ZN_3_DAYLCTRL,PERIMETER_BOT_ZN_3,PERIMETER_BOT_ZN_3_WALL_NORTH_WINDOW4,PERIMETER_BOT_ZN_3_DAYLREFPT1,2.2331E-003
 Sky Daylight Factors,Clear Turbid Sky,01/21,PERIMETER_BOT_ZN_3_DAYLCTRL,PERIMETER_BOT_ZN_3,PERIMETER_BOT_ZN_3_WALL_NORTH_WINDOW4,PERIMETER_BOT_ZN_3_DAYLREFPT2,2.3237E-003
 Sky Daylight Factors,Intermediate Sky,01/21,PERIMETER_BOT_ZN_3_DAYLCTRL,PERIMETER_BOT_ZN_3,PERIMETER_BOT_ZN_3_WALL_NORTH_WINDOW4,PERIMETER_BOT_ZN_3_DAYLREFPT1,1.9741E-003
 Sky Daylight Factors,Intermediate Sky,01/21,PERIMETER_BOT_ZN_3_DAYLCTRL,PERIMETER_BOT_ZN_3,PERIMETER_BOT_ZN_3_WALL_NORTH_WINDOW4,PERIMETER_BOT_ZN_3_DAYLREFPT2,2.0360E-003
 Sky Daylight Factors,Overcast Sky,01/21,PERIMETER_BOT_ZN_3_DAYLCTRL,PERIMETER_BOT_ZN_3,PERIMETER_BOT_ZN_3_WALL_NORTH_WINDOW4,PERIMETER_BOT_ZN_3_DAYLREFPT1,2.5122E-003
 Sky Daylight Factors,Overcast Sky,01/21,PERIMETER_BOT_ZN_3_DAYLCTRL,PERIMETER_BOT_ZN_3,PERIMETER_BOT_ZN_3_WALL_NORTH_WINDOW4,PERIMETER_BOT_ZN_3_DAYLREFPT2,2.5645E-003
 Sky Daylight Factors,Clear Sky,01/21,PERIMETER_BOT_ZN_3_DAYLCTRL,PERIMETER_BOT_ZN_3,PERIMETER_BOT_ZN_3_WALL_NORTH_WINDOW5,PERIMETER_BOT_ZN_3_DAYLREFPT1,2.5873E-003
 Sky Daylight Factors,Clear Sky,01/21,PERIMETER_BOT_ZN_3_DAYLCTRL,PERIMETER_BOT_ZN_3,PERIMETER_BOT_ZN_3_WALL_NORTH_WINDOW5,PERIMETER_BOT_ZN_3_DAYLREFPT2,2.5893E-003
 Sky Daylight Factors,Clear Turbid Sky,01/21,PERIMETER_BOT_ZN_3_DAYLCTRL,PERIMETER_BOT_ZN_3,PERIMETER_BOT_ZN_3_WALL_NORTH_WINDOW5,PERIMETER_BOT_ZN_3_DAYLREFPT1,2.1977E-003
 Sky Daylight Factors,Clear Turbid Sky,01/21,PERIMETER_BOT_ZN_3_DAYLCTRL,PERIMETER_BOT_ZN_3,PERIMETER_BOT_ZN_3_WALL_NORTH_WINDOW5,PERIMETER_BOT_ZN_3_DAYLREFPT2,2.1993E-003
 Sky Daylight Factors,Intermediate Sky,01/21,PERIMETER_BOT_ZN_3_DAYLCTRL,PERIMETER_BOT_ZN_3,PERIMETER_BOT_ZN_3_WALL_NORTH_WINDOW5,PERIMETER_BOT_ZN_3_DAYLREFPT1,1.9463E-003
 Sky Daylight Factors,Intermediate Sky,01/21,PERIMETER_BOT_ZN_3_DAYLCTRL,PERIMETER_BOT_ZN_3,PERIMETER_BOT_ZN_3_WALL_NORTH_WINDOW5,PERIMETER_BOT_ZN_3_DAYLREFPT2,1.9474E-003
 Sky Daylight Factors,Overcast Sky,01/21,PERIMETER_BOT_ZN_3_DAYLCTRL,PERIMETER_BOT_ZN_3,PERIMETER_BOT_ZN_3_WALL_NORTH_WINDOW5,PERIMETER_BOT_ZN_3_DAYLREFPT1,2.4916E-003
 Sky Daylight Factors,Overcast Sky,01/21,PERIMETER_BOT_ZN_3_DAYLCTRL,PERIMETER_BOT_ZN_3,PERIMETER_BOT_ZN_3_WALL_NORTH_WINDOW5,PERIMETER_BOT_ZN_3_DAYLREFPT2,2.4923E-003
 Sky Daylight Factors,Clear Sky,01/21,PERIMETER_BOT_ZN_4_DAYLCTRL,PERIMETER_BOT_ZN_4,PERIMETER_BOT_ZN_4_WALL_WEST_WINDOW1,PERIMETER_BOT_ZN_4_DAYLREFPT1,5.2128E-003
 Sky Daylight Factors,Clear Sky,01/21,PERIMETER_BOT_ZN_4_DAYLCTRL,PERIMETER_BOT_ZN_4,PERIMETER_BOT_ZN_4_WALL_WEST_WINDOW1,PERIMETER_BOT_ZN_4_DAYLREFPT2,5.3147E-003
 Sky Daylight Factors,Clear Turbid Sky,01/21,PERIMETER_BOT_ZN_4_DAYLCTRL,PERIMETER_BOT_ZN_4,PERIMETER_BOT_ZN_4_WALL_WEST_WINDOW1,PERIMETER_BOT_ZN_4_DAYLREFPT1,4.8585E-003
 Sky Daylight Factors,Clear Turbid Sky,01/21,PERIMETER_BOT_ZN_4_DAYLCTRL,PERIMETER_BOT_ZN_4,PERIMETER_BOT_ZN_4_WALL_WEST_WINDOW1,PERIMETER_BOT_ZN_4_DAYLREFPT2,4.9320E-003
 Sky Daylight Factors,Intermediate Sky,01/21,PERIMETER_BOT_ZN_4_DAYLCTRL,PERIMETER_BOT_ZN_4,PERIMETER_BOT_ZN_4_WALL_WEST_WINDOW1,PERIMETER_BOT_ZN_4_DAYLREFPT1,4.7924E-003
 Sky Daylight Factors,Intermediate Sky,01/21,PERIMETER_BOT_ZN_4_DAYLCTRL,PERIMETER_BOT_ZN_4,PERIMETER_BOT_ZN_4_WALL_WEST_WINDOW1,PERIMETER_BOT_ZN_4_DAYLREFPT2,4.8200E-003
 Sky Daylight Factors,Overcast Sky,01/21,PERIMETER_BOT_ZN_4_DAYLCTRL,PERIMETER_BOT_ZN_4,PERIMETER_BOT_ZN_4_WALL_WEST_WINDOW1,PERIMETER_BOT_ZN_4_DAYLREFPT1,4.2604E-003
 Sky Daylight Factors,Overcast Sky,01/21,PERIMETER_BOT_ZN_4_DAYLCTRL,PERIMETER_BOT_ZN_4,PERIMETER_BOT_ZN_4_WALL_WEST_WINDOW1,PERIMETER_BOT_ZN_4_DAYLREFPT2,4.2969E-003
 Sky Daylight Factors,Clear Sky,01/21,PERIMETER_BOT_ZN_4_DAYLCTRL,PERIMETER_BOT_ZN_4,PERIMETER_BOT_ZN_4_WALL_WEST_WINDOW2,PERIMETER_BOT_ZN_4_DAYLREFPT1,5.7369E-002
 Sky Daylight Factors,Clear Sky,01/21,PERIMETER_BOT_ZN_4_DAYLCTRL,PERIMETER_BOT_ZN_4,PERIMETER_BOT_ZN_4_WALL_WEST_WINDOW2,PERIMETER_BOT_ZN_4_DAYLREFPT2,2.8281E-002
 Sky Daylight Factors,Clear Turbid Sky,01/21,PERIMETER_BOT_ZN_4_DAYLCTRL,PERIMETER_BOT_ZN_4,PERIMETER_BOT_ZN_4_WALL_WEST_WINDOW2,PERIMETER_BOT_ZN_4_DAYLREFPT1,5.2150E-002
 Sky Daylight Factors,Clear Turbid Sky,01/21,PERIMETER_BOT_ZN_4_DAYLCTRL,PERIMETER_BOT_ZN_4,PERIMETER_BOT_ZN_4_WALL_WEST_WINDOW2,PERIMETER_BOT_ZN_4_DAYLREFPT2,2.5054E-002
 Sky Daylight Factors,Intermediate Sky,01/21,PERIMETER_BOT_ZN_4_DAYLCTRL,PERIMETER_BOT_ZN_4,PERIMETER_BOT_ZN_4_WALL_WEST_WINDOW2,PERIMETER_BOT_ZN_4_DAYLREFPT1,5.6540E-002
 Sky Daylight Factors,Intermediate Sky,01/21,PERIMETER_BOT_ZN_4_DAYLCTRL,PERIMETER_BOT_ZN_4,PERIMETER_BOT_ZN_4_WALL_WEST_WINDOW2,PERIMETER_BOT_ZN_4_DAYLREFPT2,2.3481E-002
 Sky Daylight Factors,Overcast Sky,01/21,PERIMETER_BOT_ZN_4_DAYLCTRL,PERIMETER_BOT_ZN_4,PERIMETER_BOT_ZN_4_WALL_WEST_WINDOW2,PERIMETER_BOT_ZN_4_DAYLREFPT1,4.6880E-002
 Sky Daylight Factors,Overcast Sky,01/21,PERIMETER_BOT_ZN_4_DAYLCTRL,PERIMETER_BOT_ZN_4,PERIMETER_BOT_ZN_4_WALL_WEST_WINDOW2,PERIMETER_BOT_ZN_4_DAYLREFPT2,1.7537E-002
 Sky Daylight Factors,Clear Sky,01/21,PERIMETER_BOT_ZN_4_DAYLCTRL,PERIMETER_BOT_ZN_4,PERIMETER_BOT_ZN_4_WALL_WEST_WINDOW3,PERIMETER_BOT_ZN_4_DAYLREFPT1,5.2947E-003
 Sky Daylight Factors,Clear Sky,01/21,PERIMETER_BOT_ZN_4_DAYLCTRL,PERIMETER_BOT_ZN_4,PERIMETER_BOT_ZN_4_WALL_WEST_WINDOW3,PERIMETER_BOT_ZN_4_DAYLREFPT2,5.5617E-003
 Sky Daylight Factors,Clear Turbid Sky,01/21,PERIMETER_BOT_ZN_4_DAYLCTRL,PERIMETER_BOT_ZN_4,PERIMETER_BOT_ZN_4_WALL_WEST_WINDOW3,PERIMETER_BOT_ZN_4_DAYLREFPT1,4.9646E-003
 Sky Daylight Factors,Clear Turbid Sky,01/21,PERIMETER_BOT_ZN_4_DAYLCTRL,PERIMETER_BOT_ZN_4,PERIMETER_BOT_ZN_4_WALL_WEST_WINDOW3,PERIMETER_BOT_ZN_4_DAYLREFPT2,5.2522E-003
 Sky Daylight Factors,Intermediate Sky,01/21,PERIMETER_BOT_ZN_4_DAYLCTRL,PERIMETER_BOT_ZN_4,PERIMETER_BOT_ZN_4_WALL_WEST_WINDOW3,PERIMETER_BOT_ZN_4_DAYLREFPT1,4.8319E-003
 Sky Daylight Factors,Intermediate Sky,01/21,PERIMETER_BOT_ZN_4_DAYLCTRL,PERIMETER_BOT_ZN_4,PERIMETER_BOT_ZN_4_WALL_WEST_WINDOW3,PERIMETER_BOT_ZN_4_DAYLREFPT2,4.9547E-003
 Sky Daylight Factors,Overcast Sky,01/21,PERIMETER_BOT_ZN_4_DAYLCTRL,PERIMETER_BOT_ZN_4,PERIMETER_BOT_ZN_4_WALL_WEST_WINDOW3,PERIMETER_BOT_ZN_4_DAYLREFPT1,4.2601E-003
 Sky Daylight Factors,Overcast Sky,01/21,PERIMETER_BOT_ZN_4_DAYLCTRL,PERIMETER_BOT_ZN_4,PERIMETER_BOT_ZN_4_WALL_WEST_WINDOW3,PERIMETER_BOT_ZN_4_DAYLREFPT2,4.2961E-003
 Sky Daylight Factors,Clear Sky,01/21,PERIMETER_MID_ZN_1_DAYLCTRL,PERIMETER_MID_ZN_1,PERIMETER_MID_ZN_1_WALL_SOUTH_WINDOW,PERIMETER_MID_ZN_1_DAYLREFPT1,0.1536
 Sky Daylight Factors,Clear Sky,01/21,PERIMETER_MID_ZN_1_DAYLCTRL,PERIMETER_MID_ZN_1,PERIMETER_MID_ZN_1_WALL_SOUTH_WINDOW,PERIMETER_MID_ZN_1_DAYLREFPT2,0.1041
 Sky Daylight Factors,Clear Turbid Sky,01/21,PERIMETER_MID_ZN_1_DAYLCTRL,PERIMETER_MID_ZN_1,PERIMETER_MID_ZN_1_WALL_SOUTH_WINDOW,PERIMETER_MID_ZN_1_DAYLREFPT1,0.1676
 Sky Daylight Factors,Clear Turbid Sky,01/21,PERIMETER_MID_ZN_1_DAYLCTRL,PERIMETER_MID_ZN_1,PERIMETER_MID_ZN_1_WALL_SOUTH_WINDOW,PERIMETER_MID_ZN_1_DAYLREFPT2,0.1154
 Sky Daylight Factors,Intermediate Sky,01/21,PERIMETER_MID_ZN_1_DAYLCTRL,PERIMETER_MID_ZN_1,PERIMETER_MID_ZN_1_WALL_SOUTH_WINDOW,PERIMETER_MID_ZN_1_DAYLREFPT1,0.1224
 Sky Daylight Factors,Intermediate Sky,01/21,PERIMETER_MID_ZN_1_DAYLCTRL,PERIMETER_MID_ZN_1,PERIMETER_MID_ZN_1_WALL_SOUTH_WINDOW,PERIMETER_MID_ZN_1_DAYLREFPT2,6.5201E-002
 Sky Daylight Factors,Overcast Sky,01/21,PERIMETER_MID_ZN_1_DAYLCTRL,PERIMETER_MID_ZN_1,PERIMETER_MID_ZN_1_WALL_SOUTH_WINDOW,PERIMETER_MID_ZN_1_DAYLREFPT1,5.5140E-002
 Sky Daylight Factors,Overcast Sky,01/21,PERIMETER_MID_ZN_1_DAYLCTRL,PERIMETER_MID_ZN_1,PERIMETER_MID_ZN_1_WALL_SOUTH_WINDOW,PERIMETER_MID_ZN_1_DAYLREFPT2,2.7277E-002
 Sky Daylight Factors,Clear Sky,01/21,PERIMETER_MID_ZN_2_DAYLCTRL,PERIMETER_MID_ZN_2,PERIMETER_MID_ZN_2_WALL_EAST_WINDOW,PERIMETER_MID_ZN_2_DAYLREFPT1,7.1673E-002
 Sky Daylight Factors,Clear Sky,01/21,PERIMETER_MID_ZN_2_DAYLCTRL,PERIMETER_MID_ZN_2,PERIMETER_MID_ZN_2_WALL_EAST_WINDOW,PERIMETER_MID_ZN_2_DAYLREFPT2,4.2374E-002
 Sky Daylight Factors,Clear Turbid Sky,01/21,PERIMETER_MID_ZN_2_DAYLCTRL,PERIMETER_MID_ZN_2,PERIMETER_MID_ZN_2_WALL_EAST_WINDOW,PERIMETER_MID_ZN_2_DAYLREFPT1,6.6549E-002
 Sky Daylight Factors,Clear Turbid Sky,01/21,PERIMETER_MID_ZN_2_DAYLCTRL,PERIMETER_MID_ZN_2,PERIMETER_MID_ZN_2_WALL_EAST_WINDOW,PERIMETER_MID_ZN_2_DAYLREFPT2,3.8733E-002
 Sky Daylight Factors,Intermediate Sky,01/21,PERIMETER_MID_ZN_2_DAYLCTRL,PERIMETER_MID_ZN_2,PERIMETER_MID_ZN_2_WALL_EAST_WINDOW,PERIMETER_MID_ZN_2_DAYLREFPT1,6.9870E-002
 Sky Daylight Factors,Intermediate Sky,01/21,PERIMETER_MID_ZN_2_DAYLCTRL,PERIMETER_MID_ZN_2,PERIMETER_MID_ZN_2_WALL_EAST_WINDOW,PERIMETER_MID_ZN_2_DAYLREFPT2,3.6115E-002
 Sky Daylight Factors,Overcast Sky,01/21,PERIMETER_MID_ZN_2_DAYLCTRL,PERIMETER_MID_ZN_2,PERIMETER_MID_ZN_2_WALL_EAST_WINDOW,PERIMETER_MID_ZN_2_DAYLREFPT1,5.6552E-002
 Sky Daylight Factors,Overcast Sky,01/21,PERIMETER_MID_ZN_2_DAYLCTRL,PERIMETER_MID_ZN_2,PERIMETER_MID_ZN_2_WALL_EAST_WINDOW,PERIMETER_MID_ZN_2_DAYLREFPT2,2.7590E-002
 Sky Daylight Factors,Clear Sky,01/21,PERIMETER_MID_ZN_3_DAYLCTRL,PERIMETER_MID_ZN_3,PERIMETER_MID_ZN_3_WALL_NORTH_WINDOW,PERIMETER_MID_ZN_3_DAYLREFPT1,5.1380E-002
 Sky Daylight Factors,Clear Sky,01/21,PERIMETER_MID_ZN_3_DAYLCTRL,PERIMETER_MID_ZN_3,PERIMETER_MID_ZN_3_WALL_NORTH_WINDOW,PERIMETER_MID_ZN_3_DAYLREFPT2,3.4253E-002
 Sky Daylight Factors,Clear Turbid Sky,01/21,PERIMETER_MID_ZN_3_DAYLCTRL,PERIMETER_MID_ZN_3,PERIMETER_MID_ZN_3_WALL_NORTH_WINDOW,PERIMETER_MID_ZN_3_DAYLREFPT1,4.0404E-002
 Sky Daylight Factors,Clear Turbid Sky,01/21,PERIMETER_MID_ZN_3_DAYLCTRL,PERIMETER_MID_ZN_3,PERIMETER_MID_ZN_3_WALL_NORTH_WINDOW,PERIMETER_MID_ZN_3_DAYLREFPT2,2.6986E-002
 Sky Daylight Factors,Intermediate Sky,01/21,PERIMETER_MID_ZN_3_DAYLCTRL,PERIMETER_MID_ZN_3,PERIMETER_MID_ZN_3_WALL_NORTH_WINDOW,PERIMETER_MID_ZN_3_DAYLREFPT1,3.7042E-002
 Sky Daylight Factors,Intermediate Sky,01/21,PERIMETER_MID_ZN_3_DAYLCTRL,PERIMETER_MID_ZN_3,PERIMETER_MID_ZN_3_WALL_NORTH_WINDOW,PERIMETER_MID_ZN_3_DAYLREFPT2,2.0286E-002
 Sky Daylight Factors,Overcast Sky,01/21,PERIMETER_MID_ZN_3_DAYLCTRL,PERIMETER_MID_ZN_3,PERIMETER_MID_ZN_3_WALL_NORTH_WINDOW,PERIMETER_MID_ZN_3_DAYLREFPT1,5.5140E-002
 Sky Daylight Factors,Overcast Sky,01/21,PERIMETER_MID_ZN_3_DAYLCTRL,PERIMETER_MID_ZN_3,PERIMETER_MID_ZN_3_WALL_NORTH_WINDOW,PERIMETER_MID_ZN_3_DAYLREFPT2,2.7273E-002
 Sky Daylight Factors,Clear Sky,01/21,PERIMETER_MID_ZN_4_DAYLCTRL,PERIMETER_MID_ZN_4,PERIMETER_MID_ZN_4_WALL_WEST_WINDOW,PERIMETER_MID_ZN_4_DAYLREFPT1,6.8666E-002
 Sky Daylight Factors,Clear Sky,01/21,PERIMETER_MID_ZN_4_DAYLCTRL,PERIMETER_MID_ZN_4,PERIMETER_MID_ZN_4_WALL_WEST_WINDOW,PERIMETER_MID_ZN_4_DAYLREFPT2,4.0927E-002
 Sky Daylight Factors,Clear Turbid Sky,01/21,PERIMETER_MID_ZN_4_DAYLCTRL,PERIMETER_MID_ZN_4,PERIMETER_MID_ZN_4_WALL_WEST_WINDOW,PERIMETER_MID_ZN_4_DAYLREFPT1,6.2819E-002
 Sky Daylight Factors,Clear Turbid Sky,01/21,PERIMETER_MID_ZN_4_DAYLCTRL,PERIMETER_MID_ZN_4,PERIMETER_MID_ZN_4_WALL_WEST_WINDOW,PERIMETER_MID_ZN_4_DAYLREFPT2,3.6932E-002
 Sky Daylight Factors,Intermediate Sky,01/21,PERIMETER_MID_ZN_4_DAYLCTRL,PERIMETER_MID_ZN_4,PERIMETER_MID_ZN_4_WALL_WEST_WINDOW,PERIMETER_MID_ZN_4_DAYLREFPT1,6.7321E-002
 Sky Daylight Factors,Intermediate Sky,01/21,PERIMETER_MID_ZN_4_DAYLCTRL,PERIMETER_MID_ZN_4,PERIMETER_MID_ZN_4_WALL_WEST_WINDOW,PERIMETER_MID_ZN_4_DAYLREFPT2,3.4915E-002
 Sky Daylight Factors,Overcast Sky,01/21,PERIMETER_MID_ZN_4_DAYLCTRL,PERIMETER_MID_ZN_4,PERIMETER_MID_ZN_4_WALL_WEST_WINDOW,PERIMETER_MID_ZN_4_DAYLREFPT1,5.6552E-002
 Sky Daylight Factors,Overcast Sky,01/21,PERIMETER_MID_ZN_4_DAYLCTRL,PERIMETER_MID_ZN_4,PERIMETER_MID_ZN_4_WALL_WEST_WINDOW,PERIMETER_MID_ZN_4_DAYLREFPT2,2.7590E-002
 Sky Daylight Factors,Clear Sky,01/21,PERIMETER_TOP_ZN_1_DAYLCTRL,PERIMETER_TOP_ZN_1,PERIMETER_TOP_ZN_1_WALL_SOUTH_WINDOW,PERIMETER_TOP_ZN_1_DAYLREFPT1,0.1537
 Sky Daylight Factors,Clear Sky,01/21,PERIMETER_TOP_ZN_1_DAYLCTRL,PERIMETER_TOP_ZN_1,PERIMETER_TOP_ZN_1_WALL_SOUTH_WINDOW,PERIMETER_TOP_ZN_1_DAYLREFPT2,0.1043
 Sky Daylight Factors,Clear Turbid Sky,01/21,PERIMETER_TOP_ZN_1_DAYLCTRL,PERIMETER_TOP_ZN_1,PERIMETER_TOP_ZN_1_WALL_SOUTH_WINDOW,PERIMETER_TOP_ZN_1_DAYLREFPT1,0.1677
 Sky Daylight Factors,Clear Turbid Sky,01/21,PERIMETER_TOP_ZN_1_DAYLCTRL,PERIMETER_TOP_ZN_1,PERIMETER_TOP_ZN_1_WALL_SOUTH_WINDOW,PERIMETER_TOP_ZN_1_DAYLREFPT2,0.1156
 Sky Daylight Factors,Intermediate Sky,01/21,PERIMETER_TOP_ZN_1_DAYLCTRL,PERIMETER_TOP_ZN_1,PERIMETER_TOP_ZN_1_WALL_SOUTH_WINDOW,PERIMETER_TOP_ZN_1_DAYLREFPT1,0.1225
 Sky Daylight Factors,Intermediate Sky,01/21,PERIMETER_TOP_ZN_1_DAYLCTRL,PERIMETER_TOP_ZN_1,PERIMETER_TOP_ZN_1_WALL_SOUTH_WINDOW,PERIMETER_TOP_ZN_1_DAYLREFPT2,6.5363E-002
 Sky Daylight Factors,Overcast Sky,01/21,PERIMETER_TOP_ZN_1_DAYLCTRL,PERIMETER_TOP_ZN_1,PERIMETER_TOP_ZN_1_WALL_SOUTH_WINDOW,PERIMETER_TOP_ZN_1_DAYLREFPT1,5.5258E-002
 Sky Daylight Factors,Overcast Sky,01/21,PERIMETER_TOP_ZN_1_DAYLCTRL,PERIMETER_TOP_ZN_1,PERIMETER_TOP_ZN_1_WALL_SOUTH_WINDOW,PERIMETER_TOP_ZN_1_DAYLREFPT2,2.7338E-002
 Sky Daylight Factors,Clear Sky,01/21,PERIMETER_TOP_ZN_2_DAYLCTRL,PERIMETER_TOP_ZN_2,PERIMETER_TOP_ZN_2_WALL_EAST_WINDOW,PERIMETER_TOP_ZN_2_DAYLREFPT1,7.1723E-002
 Sky Daylight Factors,Clear Sky,01/21,PERIMETER_TOP_ZN_2_DAYLCTRL,PERIMETER_TOP_ZN_2,PERIMETER_TOP_ZN_2_WALL_EAST_WINDOW,PERIMETER_TOP_ZN_2_DAYLREFPT2,4.2439E-002
 Sky Daylight Factors,Clear Turbid Sky,01/21,PERIMETER_TOP_ZN_2_DAYLCTRL,PERIMETER_TOP_ZN_2,PERIMETER_TOP_ZN_2_WALL_EAST_WINDOW,PERIMETER_TOP_ZN_2_DAYLREFPT1,6.6605E-002
 Sky Daylight Factors,Clear Turbid Sky,01/21,PERIMETER_TOP_ZN_2_DAYLCTRL,PERIMETER_TOP_ZN_2,PERIMETER_TOP_ZN_2_WALL_EAST_WINDOW,PERIMETER_TOP_ZN_2_DAYLREFPT2,3.8794E-002
 Sky Daylight Factors,Intermediate Sky,01/21,PERIMETER_TOP_ZN_2_DAYLCTRL,PERIMETER_TOP_ZN_2,PERIMETER_TOP_ZN_2_WALL_EAST_WINDOW,PERIMETER_TOP_ZN_2_DAYLREFPT1,6.9979E-002
 Sky Daylight Factors,Intermediate Sky,01/21,PERIMETER_TOP_ZN_2_DAYLCTRL,PERIMETER_TOP_ZN_2,PERIMETER_TOP_ZN_2_WALL_EAST_WINDOW,PERIMETER_TOP_ZN_2_DAYLREFPT2,3.6191E-002
 Sky Daylight Factors,Overcast Sky,01/21,PERIMETER_TOP_ZN_2_DAYLCTRL,PERIMETER_TOP_ZN_2,PERIMETER_TOP_ZN_2_WALL_EAST_WINDOW,PERIMETER_TOP_ZN_2_DAYLREFPT1,5.6670E-002
 Sky Daylight Factors,Overcast Sky,01/21,PERIMETER_TOP_ZN_2_DAYLCTRL,PERIMETER_TOP_ZN_2,PERIMETER_TOP_ZN_2_WALL_EAST_WINDOW,PERIMETER_TOP_ZN_2_DAYLREFPT2,2.7650E-002
 Sky Daylight Factors,Clear Sky,01/21,PERIMETER_TOP_ZN_3_DAYLCTRL,PERIMETER_TOP_ZN_3,PERIMETER_TOP_ZN_3_WALL_NORTH_WINDOW,PERIMETER_TOP_ZN_3_DAYLREFPT1,5.1384E-002
 Sky Daylight Factors,Clear Sky,01/21,PERIMETER_TOP_ZN_3_DAYLCTRL,PERIMETER_TOP_ZN_3,PERIMETER_TOP_ZN_3_WALL_NORTH_WINDOW,PERIMETER_TOP_ZN_3_DAYLREFPT2,3.4292E-002
 Sky Daylight Factors,Clear Turbid Sky,01/21,PERIMETER_TOP_ZN_3_DAYLCTRL,PERIMETER_TOP_ZN_3,PERIMETER_TOP_ZN_3_WALL_NORTH_WINDOW,PERIMETER_TOP_ZN_3_DAYLREFPT1,4.0411E-002
 Sky Daylight Factors,Clear Turbid Sky,01/21,PERIMETER_TOP_ZN_3_DAYLCTRL,PERIMETER_TOP_ZN_3,PERIMETER_TOP_ZN_3_WALL_NORTH_WINDOW,PERIMETER_TOP_ZN_3_DAYLREFPT2,2.7016E-002
 Sky Daylight Factors,Intermediate Sky,01/21,PERIMETER_TOP_ZN_3_DAYLCTRL,PERIMETER_TOP_ZN_3,PERIMETER_TOP_ZN_3_WALL_NORTH_WINDOW,PERIMETER_TOP_ZN_3_DAYLREFPT1,3.7101E-002
 Sky Daylight Factors,Intermediate Sky,01/21,PERIMETER_TOP_ZN_3_DAYLCTRL,PERIMETER_TOP_ZN_3,PERIMETER_TOP_ZN_3_WALL_NORTH_WINDOW,PERIMETER_TOP_ZN_3_DAYLREFPT2,2.0323E-002
 Sky Daylight Factors,Overcast Sky,01/21,PERIMETER_TOP_ZN_3_DAYLCTRL,PERIMETER_TOP_ZN_3,PERIMETER_TOP_ZN_3_WALL_NORTH_WINDOW,PERIMETER_TOP_ZN_3_DAYLREFPT1,5.5258E-002
 Sky Daylight Factors,Overcast Sky,01/21,PERIMETER_TOP_ZN_3_DAYLCTRL,PERIMETER_TOP_ZN_3,PERIMETER_TOP_ZN_3_WALL_NORTH_WINDOW,PERIMETER_TOP_ZN_3_DAYLREFPT2,2.7333E-002
 Sky Daylight Factors,Clear Sky,01/21,PERIMETER_TOP_ZN_4_DAYLCTRL,PERIMETER_TOP_ZN_4,PERIMETER_TOP_ZN_4_WALL_WEST_WINDOW,PERIMETER_TOP_ZN_4_DAYLREFPT1,6.8711E-002
 Sky Daylight Factors,Clear Sky,01/21,PERIMETER_TOP_ZN_4_DAYLCTRL,PERIMETER_TOP_ZN_4,PERIMETER_TOP_ZN_4_WALL_WEST_WINDOW,PERIMETER_TOP_ZN_4_DAYLREFPT2,4.0987E-002
 Sky Daylight Factors,Clear Turbid Sky,01/21,PERIMETER_TOP_ZN_4_DAYLCTRL,PERIMETER_TOP_ZN_4,PERIMETER_TOP_ZN_4_WALL_WEST_WINDOW,PERIMETER_TOP_ZN_4_DAYLREFPT1,6.2870E-002
 Sky Daylight Factors,Clear Turbid Sky,01/21,PERIMETER_TOP_ZN_4_DAYLCTRL,PERIMETER_TOP_ZN_4,PERIMETER_TOP_ZN_4_WALL_WEST_WINDOW,PERIMETER_TOP_ZN_4_DAYLREFPT2,3.6988E-002
 Sky Daylight Factors,Intermediate Sky,01/21,PERIMETER_TOP_ZN_4_DAYLCTRL,PERIMETER_TOP_ZN_4,PERIMETER_TOP_ZN_4_WALL_WEST_WINDOW,PERIMETER_TOP_ZN_4_DAYLREFPT1,6.7426E-002
 Sky Daylight Factors,Intermediate Sky,01/21,PERIMETER_TOP_ZN_4_DAYLCTRL,PERIMETER_TOP_ZN_4,PERIMETER_TOP_ZN_4_WALL_WEST_WINDOW,PERIMETER_TOP_ZN_4_DAYLREFPT2,3.4988E-002
 Sky Daylight Factors,Overcast Sky,01/21,PERIMETER_TOP_ZN_4_DAYLCTRL,PERIMETER_TOP_ZN_4,PERIMETER_TOP_ZN_4_WALL_WEST_WINDOW,PERIMETER_TOP_ZN_4_DAYLREFPT1,5.6670E-002
 Sky Daylight Factors,Overcast Sky,01/21,PERIMETER_TOP_ZN_4_DAYLCTRL,PERIMETER_TOP_ZN_4,PERIMETER_TOP_ZN_4_WALL_WEST_WINDOW,PERIMETER_TOP_ZN_4_DAYLREFPT2,2.7650E-002
! <Zone Sizing Information>, Zone Name, Load Type, Calc Des Load {W}, User Des Load {W}, Calc Des Air Flow Rate {m3/s}, User Des Air Flow Rate {m3/s}, Design Day Name, Date/Time of Peak, Temperature at Peak {C}, Humidity Ratio at Peak {kgWater/kgDryAir}, Floor Area {m2}, # Occupants, Calc Outdoor Air Flow Rate {m3/s}, Calc DOAS Heat Addition Rate {W}
 Zone Sizing Information, BASEMENT, Cooling, 66125.93321, 66125.93321, 4.76154, 4.76154, NEW.YORK-JOHN.F.KENNEDY.INTL.AP_NY_USA ANN CLG .4% CONDNS DB=>MWB, 7/21 08:00:00, 26.62400, 1.41098E-002, 2779.42662, 149.60210, 1.20016, -236.11559
 Zone Sizing Information, BASEMENT, Heating, 887.91605, 887.91605, 5.40560E-002, 1.20016, NEW.YORK-JOHN.F.KENNEDY.INTL.AP_NY_USA ANN CLG .4% CONDNS DB=>MWB, 7/21 00:10:00, 25.95800, 1.41086E-002, 2779.42662, 149.60210, 1.20016, -4139.17419
 Zone Sizing Information, CORE_BOTTOM, Cooling, 72366.72521, 72366.72521, 5.21130, 5.21130, NEW.YORK-JOHN.F.KENNEDY.INTL.AP_NY_USA ANN CLG .4% CONDNS DB=>MWB, 7/21 08:00:00, 26.62400, 1.41098E-002, 2496.12046, 134.35320, 1.07782, -213.17015
 Zone Sizing Information, CORE_BOTTOM, Heating, 3169.08704, 3169.08704, 0.13520, 1.07782, NEW.YORK-JOHN.F.KENNEDY.INTL.AP_NY_USA ANN HTG 99.6% CONDNS DB, 1/21 08:00:00, -10.70000, 1.50390E-003, 2496.12046, 134.35320, 1.07782, 100.71617
 Zone Sizing Information, CORE_MID, Cooling, 678838.97316, 678838.97316, 48.86999, 48.86999, NEW.YORK-JOHN.F.KENNEDY.INTL.AP_NY_USA ANN CLG .4% CONDNS DB=>MWB, 7/21 08:00:00, 26.62400, 1.41098E-002, 2496.12046, 134.35320, 10.77825, -2129.42399
 Zone Sizing Information, CORE_MID, Heating, 285351.59261, 285351.59261, 12.03849, 12.03849, NEW.YORK-JOHN.F.KENNEDY.INTL.AP_NY_USA ANN HTG 99.6% CONDNS DB, 1/21 08:00:00, -10.70000, 1.50390E-003, 2496.12046, 134.35320, 10.77825, 1670.69662
 Zone Sizing Information, CORE_TOP, Cooling, 69165.30866, 69165.30866, 4.97992, 4.97992, NEW.YORK-JOHN.F.KENNEDY.INTL.AP_NY_USA ANN CLG .4% CONDNS DB=>MWB, 7/21 08:00:00, 26.62400, 1.41098E-002, 2496.12046, 134.35320, 1.07782, -212.93638
 Zone Sizing Information, CORE_TOP, Heating, 59421.28676, 59421.28676, 2.52487, 2.52487, NEW.YORK-JOHN.F.KENNEDY.INTL.AP_NY_USA ANN HTG 99.6% CONDNS DB, 1/21 08:00:00, -10.70000, 1.50390E-003, 2496.12046, 134.35320, 1.07782, 194.86940
 Zone Sizing Information, PERIMETER_BOT_ZN_3, Cooling, 12860.38536, 12860.38536, 0.93507, 0.93507, NEW.YORK-JOHN.F.KENNEDY.INTL.AP_NY_USA ANN CLG .4% CONDNS DB=>MWB, 7/21 14:10:00, 32.10000, 1.41196E-002, 313.41284, 16.86939, 0.13533, -16.10179
 Zone Sizing Information, PERIMETER_BOT_ZN_3, Heating, 11047.22076, 11047.22076, 0.47034, 0.47034, NEW.YORK-JOHN.F.KENNEDY.INTL.AP_NY_USA ANN HTG 99.6% CONDNS DB, 1/21 08:00:00, -10.70000, 1.50390E-003, 313.41284, 16.86939, 0.13533, 25.64249
 Zone Sizing Information, PERIMETER_BOT_ZN_2, Cooling, 16130.81734, 16130.81734, 1.17285, 1.17285, NEW.YORK-JOHN.F.KENNEDY.INTL.AP_NY_USA ANN CLG .4% CONDNS DB=>MWB, 7/21 08:50:00, 27.79567, 1.41119E-002, 201.97515, 10.87127, 8.72129E-002, -10.38181
 Zone Sizing Information, PERIMETER_BOT_ZN_2, Heating, 7618.77580, 7618.77580, 0.32447, 0.32447, NEW.YORK-JOHN.F.KENNEDY.INTL.AP_NY_USA ANN HTG 99.6% CONDNS DB, 1/21 08:00:00, -10.70000, 1.50390E-003, 201.97515, 10.87127, 8.72129E-002, 16.52821
 Zone Sizing Information, PERIMETER_BOT_ZN_1, Cooling, 18616.78530, 18616.78530, 1.35361, 1.35361, NEW.YORK-JOHN.F.KENNEDY.INTL.AP_NY_USA ANN CLG .4% CONDNS DB=>MWB, 7/21 13:00:00, 31.73000, 1.41190E-002, 313.41969, 16.86975, 0.13533, -16.10074
[...]
 Component Sizing Information, Controller:OutdoorAir, DOAS SYSTEM OTHER OUTDOOR AIR SYSTEM CONTROLLER, Maximum Outdoor Air Flow Rate [m3/s], 1.53855
 Component Sizing Information, Coil:Cooling:Water, AHU COOLING COIL OTHER, Design Size Design Inlet Air Temperature [C], 25.59711
 Component Sizing Information, Coil:Cooling:Water, AHU COOLING COIL OTHER, Design Size Design Inlet Water Temperature [C], 7.00000
 Component Sizing Information, Coil:Cooling:Water, AHU COOLING COIL OTHER, Design Size Design Outlet Air Temperature [C], 12.12849
 Component Sizing Information, Coil:Cooling:Water, AHU COOLING COIL OTHER, Design Size Design Inlet Air Humidity Ratio [kgWater/kgDryAir], 1.41080E-002
 Component Sizing Information, Coil:Cooling:Water, AHU COOLING COIL OTHER, Design Size Design Outlet Air Humidity Ratio [kgWater/kgDryAir], 8.50000E-003
 Component Sizing Information, Coil:Cooling:Water, AHU COOLING COIL OTHER, Design Size Design Coil Load [W], 51921.73629
 Component Sizing Information, Coil:Cooling:Water, AHU COOLING COIL OTHER, Design Size Design Water Flow Rate [m3/s], 2.06161E-003
 Component Sizing Information, Coil:Cooling:Water, AHU COOLING COIL OTHER, Design Size Design Air Flow Rate [m3/s], 1.53855
Water Cooling Coil Capacity Information,Coil:Cooling:Water,AHU COOLING COIL OTHER,45603.88,30161.57,15442.31,0.66,5069.45,51.42
 Component Sizing Information, Coil:Heating:Water, AHU HEATING COIL OTHER, Design Size Rated Capacity [W], 0.00000
 Component Sizing Information, Coil:Heating:Water, AHU HEATING COIL OTHER, Design Size Maximum Water Flow Rate [m3/s], 0.00000
 Component Sizing Information, Coil:Heating:Water, AHU HEATING COIL OTHER, Design Size U-Factor Times Area Value [W/K], 1.00000
Water Heating Coil Capacity Information,Coil:Heating:Water,AHU HEATING COIL OTHER,0.00
 Component Sizing Information, Fan:VariableVolume, FAN OTHER, Design Size Maximum Flow Rate [m3/s], 1.53855
 Component Sizing Information, Fan:VariableVolume, FAN OTHER, Design Electric Power Consumption [W], 1282.12432
 Component Sizing Information, Controller:WaterCoil, AHU COOLING COIL OTHER CONTROLLER, Maximum Actuated Flow [m3/s], 2.06161E-003
 Component Sizing Information, Controller:WaterCoil, AHU COOLING COIL OTHER CONTROLLER, Controller Convergence Tolerance, 2.30980E-004
 Component Sizing Information, Controller:WaterCoil, AHU HEATING COIL OTHER CONTROLLER, Maximum Actuated Flow [m3/s], 0.00000
 Component Sizing Information, Controller:WaterCoil, AHU HEATING COIL OTHER CONTROLLER, Controller Convergence Tolerance, 1.00000E-003
 Component Sizing Information, Controller:OutdoorAir, DOAS SYSTEM BOT OUTDOOR AIR SYSTEM CONTROLLER, Maximum Outdoor Air Flow Rate [m3/s], 1.53855
 Component Sizing Information, Coil:Cooling:Water, AHU COOLING COIL BOT, Design Size Design Inlet Air Temperature [C], 28.66781
 Component Sizing Information, Coil:Cooling:Water, AHU COOLING COIL BOT, Design Size Design Inlet Water Temperature [C], 7.00000
 Component Sizing Information, Coil:Cooling:Water, AHU COOLING COIL BOT, Design Size Design Outlet Air Temperature [C], 12.12850
 Component Sizing Information, Coil:Cooling:Water, AHU COOLING COIL BOT, Design Size Design Inlet Air Humidity Ratio [kgWater/kgDryAir], 1.41135E-002
 Component Sizing Information, Coil:Cooling:Water, AHU COOLING COIL BOT, Design Size Design Outlet Air Humidity Ratio [kgWater/kgDryAir], 8.50000E-003
 Component Sizing Information, Coil:Cooling:Water, AHU COOLING COIL BOT, Design Size Design Coil Load [W], 57810.68556
 Component Sizing Information, Coil:Cooling:Water, AHU COOLING COIL BOT, Design Size Design Water Flow Rate [m3/s], 2.29544E-003
 Component Sizing Information, Coil:Cooling:Water, AHU COOLING COIL BOT, Design Size Design Air Flow Rate [m3/s], 1.53855
Water Cooling Coil Capacity Information,Coil:Cooling:Water,AHU COOLING COIL BOT,46869.01,30746.44,16122.58,0.66,5205.89,52.80
 Component Sizing Information, Coil:Heating:Water, AHU HEATING COIL BOT, Design Size Rated Capacity [W], 43728.49829
 Component Sizing Information, Coil:Heating:Water, AHU HEATING COIL BOT, Design Size Maximum Water Flow Rate [m3/s], 5.31370E-004
 Component Sizing Information, Coil:Heating:Water, AHU HEATING COIL BOT, Design Size U-Factor Times Area Value [W/K], 1217.45116
Water Heating Coil Capacity Information,Coil:Heating:Water,AHU HEATING COIL BOT,47546.92
 Component Sizing Information, Fan:VariableVolume, FAN BOT, Design Size Maximum Flow Rate [m3/s], 1.53855
 Component Sizing Information, Fan:VariableVolume, FAN BOT, Design Electric Power Consumption [W], 1282.12432
 Component Sizing Information, Controller:WaterCoil, AHU COOLING COIL BOT CONTROLLER, Maximum Actuated Flow [m3/s], 2.29544E-003
 Component Sizing Information, Controller:WaterCoil, AHU COOLING COIL BOT CONTROLLER, Controller Convergence Tolerance, 2.07451E-004
 Component Sizing Information, Controller:WaterCoil, AHU HEATING COIL BOT CONTROLLER, Maximum Actuated Flow [m3/s], 5.31370E-004
 Component Sizing Information, Controller:WaterCoil, AHU HEATING COIL BOT CONTROLLER, Controller Convergence Tolerance, 8.96156E-004
 Component Sizing Information, Controller:OutdoorAir, DOAS SYSTEM MID OUTDOOR AIR SYSTEM CONTROLLER, Maximum Outdoor Air Flow Rate [m3/s], 15.38549
 Component Sizing Information, Coil:Cooling:Water, AHU COOLING COIL MID, Design Size Design Inlet Air Temperature [C], 28.72882
 Component Sizing Information, Coil:Cooling:Water, AHU COOLING COIL MID, Design Size Design Inlet Water Temperature [C], 7.00000
 Component Sizing Information, Coil:Cooling:Water, AHU COOLING COIL MID, Design Size Design Outlet Air Temperature [C], 12.12850
 Component Sizing Information, Coil:Cooling:Water, AHU COOLING COIL MID, Design Size Design Inlet Air Humidity Ratio [kgWater/kgDryAir], 1.41136E-002
 Component Sizing Information, Coil:Cooling:Water, AHU COOLING COIL MID, Design Size Design Outlet Air Humidity Ratio [kgWater/kgDryAir], 8.50000E-003
 Component Sizing Information, Coil:Cooling:Water, AHU COOLING COIL MID, Design Size Design Coil Load [W], 579276.91903
 Component Sizing Information, Coil:Cooling:Water, AHU COOLING COIL MID, Design Size Design Water Flow Rate [m3/s], 2.30009E-002
 Component Sizing Information, Coil:Cooling:Water, AHU COOLING COIL MID, Design Size Design Air Flow Rate [m3/s], 15.38549
Water Cooling Coil Capacity Information,Coil:Cooling:Water,AHU COOLING COIL MID,468922.24,307572.17,161350.07,0.66,52085.43,528.28
 Component Sizing Information, Coil:Heating:Water, AHU HEATING COIL MID, Design Size Rated Capacity [W], 437284.98291
 Component Sizing Information, Coil:Heating:Water, AHU HEATING COIL MID, Design Size Maximum Water Flow Rate [m3/s], 5.31370E-003
 Component Sizing Information, Coil:Heating:Water, AHU HEATING COIL MID, Design Size U-Factor Times Area Value [W/K], 12174.51157
Water Heating Coil Capacity Information,Coil:Heating:Water,AHU HEATING COIL MID,475469.16
 Component Sizing Information, Fan:VariableVolume, FAN MID, Design Size Maximum Flow Rate [m3/s], 15.38549
 Component Sizing Information, Fan:VariableVolume, FAN MID, Design Electric Power Consumption [W], 12821.24318
 Component Sizing Information, Controller:WaterCoil, AHU COOLING COIL MID CONTROLLER, Maximum Actuated Flow [m3/s], 2.30009E-002
 Component Sizing Information, Controller:WaterCoil, AHU COOLING COIL MID CONTROLLER, Controller Convergence Tolerance, 2.07032E-005
 Component Sizing Information, Controller:WaterCoil, AHU HEATING COIL MID CONTROLLER, Maximum Actuated Flow [m3/s], 5.31370E-003
 Component Sizing Information, Controller:WaterCoil, AHU HEATING COIL MID CONTROLLER, Controller Convergence Tolerance, 8.96156E-005
 Component Sizing Information, Controller:OutdoorAir, DOAS SYSTEM TOP OUTDOOR AIR SYSTEM CONTROLLER, Maximum Outdoor Air Flow Rate [m3/s], 1.53855
 Component Sizing Information, Coil:Cooling:Water, AHU COOLING COIL TOP, Design Size Design Inlet Air Temperature [C], 28.84940
 Component Sizing Information, Coil:Cooling:Water, AHU COOLING COIL TOP, Design Size Design Inlet Water Temperature [C], 7.00000
 Component Sizing Information, Coil:Cooling:Water, AHU COOLING COIL TOP, Design Size Design Outlet Air Temperature [C], 12.12850
 Component Sizing Information, Coil:Cooling:Water, AHU COOLING COIL TOP, Design Size Design Inlet Air Humidity Ratio [kgWater/kgDryAir], 1.41138E-002
 Component Sizing Information, Coil:Cooling:Water, AHU COOLING COIL TOP, Design Size Design Outlet Air Humidity Ratio [kgWater/kgDryAir], 8.50000E-003
 Component Sizing Information, Coil:Cooling:Water, AHU COOLING COIL TOP, Design Size Design Coil Load [W], 58158.93741
 Component Sizing Information, Coil:Cooling:Water, AHU COOLING COIL TOP, Design Size Design Water Flow Rate [m3/s], 2.30927E-003
 Component Sizing Information, Coil:Cooling:Water, AHU COOLING COIL TOP, Design Size Design Air Flow Rate [m3/s], 1.53855
Water Cooling Coil Capacity Information,Coil:Cooling:Water,AHU COOLING COIL TOP,46937.89,30778.43,16159.46,0.66,5213.78,52.88
 Component Sizing Information, Coil:Heating:Water, AHU HEATING COIL TOP, Design Size Rated Capacity [W], 43728.49829
 Component Sizing Information, Coil:Heating:Water, AHU HEATING COIL TOP, Design Size Maximum Water Flow Rate [m3/s], 5.31370E-004
 Component Sizing Information, Coil:Heating:Water, AHU HEATING COIL TOP, Design Size U-Factor Times Area Value [W/K], 1217.45116
Water Heating Coil Capacity Information,Coil:Heating:Water,AHU HEATING COIL TOP,47546.92
 Component Sizing Information, Fan:VariableVolume, FAN TOP, Design Size Maximum Flow Rate [m3/s], 1.53855
 Component Sizing Information, Fan:VariableVolume, FAN TOP, Design Electric Power Consumption [W], 1282.12432
 Component Sizing Information, Controller:WaterCoil, AHU COOLING COIL TOP CONTROLLER, Maximum Actuated Flow [m3/s], 2.30927E-003
 Component Sizing Information, Controller:WaterCoil, AHU COOLING COIL TOP CONTROLLER, Controller Convergence Tolerance, 2.06208E-004
 Component Sizing Information, Controller:WaterCoil, AHU HEATING COIL TOP CONTROLLER, Maximum Actuated Flow [m3/s], 5.31370E-004
 Component Sizing Information, Controller:WaterCoil, AHU HEATING COIL TOP CONTROLLER, Controller Convergence Tolerance, 8.96156E-004
 Component Sizing Information, PlantLoop, TEST CHILLED WATER LOOP, Maximum Loop Flow Rate [m3/s], 0.15156
 Component Sizing Information, PlantLoop, TEST CHILLED WATER LOOP, Plant Loop Volume [m3], 18.18680
 Component Sizing Information, PlantLoop, TEST CHILLED WATER LOOP, Design Supply Temperature [C], 7.00000
 Component Sizing Information, PlantLoop, TEST CHILLED WATER LOOP, Design Return Temperature [C], 1.00000
 Component Sizing Information, PlantLoop, TEST CHILLED WATER LOOP, Sizing option (Coincident/NonCoincident), 1.00000
 Component Sizing Information, PlantLoop, TEST CHILLED WATER LOOP, Minimum Loop Flow Rate [m3/s], 0.00000
 Component Sizing Information, PlantLoop, TEST CHILLED WATER LOOP, Design Capacity [W], 3816956.01905
 Component Sizing Information, Pump:VariableSpeed, CHW PUMP, Design Flow Rate [m3/s], 0.15156
 Component Sizing Information, Pump:VariableSpeed, CHW PUMP, Design Power Consumption [W], 38720.78248
 Component Sizing Information, Chiller:Electric:EIR, CHILLER 1, Design Size Reference Chilled Water Flow Rate [m3/s], 0.15156
 Component Sizing Information, Chiller:Electric:EIR, CHILLER 1, Design Size Reference Capacity [W], 3816956.01905
 Component Sizing Information, Chiller:Electric:EIR, CHILLER 1, Design Size Reference Condenser Fluid Flow Rate [m3/s], 7.22460E-002
! <Chiller Standard Rating Information>, Component Type, Component Name, IPLV in SI Units {W/W}, IPLV in IP Units {Btu/W-h}
 Chiller Standard Rating Information, Chiller:Electric:EIR, CHILLER 1, 6.14, 20.85
 Component Sizing Information, PlantLoop, TEST CONDENSER WATER LOOP, Maximum Loop Flow Rate [m3/s], 7.22460E-002
 Component Sizing Information, PlantLoop, TEST CONDENSER WATER LOOP, Plant Loop Volume [m3], 8.66952
 Component Sizing Information, PlantLoop, TEST CONDENSER WATER LOOP, Design Supply Temperature [C], 30.00000
 Component Sizing Information, PlantLoop, TEST CONDENSER WATER LOOP, Design Return Temperature [C], 15.00000
 Component Sizing Information, PlantLoop, TEST CONDENSER WATER LOOP, Sizing option (Coincident/NonCoincident), 1.00000
 Component Sizing Information, PlantLoop, TEST CONDENSER WATER LOOP, Minimum Loop Flow Rate [m3/s], 0.00000
 Component Sizing Information, PlantLoop, TEST CONDENSER WATER LOOP, Design Capacity [W], 4548793.30231
 Component Sizing Information, Pump:VariableSpeed, CW PUMP, Design Flow Rate [m3/s], 7.22460E-002
 Component Sizing Information, Pump:VariableSpeed, CW PUMP, Design Power Consumption [W], 18457.93718
 Component Sizing Information, CoolingTower:SingleSpeed, COOLING TOWER 1, Design Water Flow Rate [m3/s], 7.22460E-002
 Component Sizing Information, CoolingTower:SingleSpeed, COOLING TOWER 1, Fan Power at Design Air Flow Rate [W], 47558.32947
 Component Sizing Information, CoolingTower:SingleSpeed, COOLING TOWER 1, Design Air Flow Rate [m3/s], 125.22772
 Component Sizing Information, CoolingTower:SingleSpeed, COOLING TOWER 1, U-Factor Times Area Value at Design Air Flow Rate [W/C], 119215.56290
 Component Sizing Information, CoolingTower:SingleSpeed, COOLING TOWER 1, Free Convection Regime Air Flow Rate [m3/s], 12.52277
 Component Sizing Information, CoolingTower:SingleSpeed, COOLING TOWER 1, Free Convection U-Factor Times Area Value [W/K], 11921.55629
 Component Sizing Information, PlantLoop, TEST HOT WATER LOOP, Maximum Loop Flow Rate [m3/s], 2.88252E-002
 Component Sizing Information, PlantLoop, TEST HOT WATER LOOP, Plant Loop Volume [m3], 3.45903
 Component Sizing Information, PlantLoop, TEST HOT WATER LOOP, Design Supply Temperature [C], 50.00000
 Component Sizing Information, PlantLoop, TEST HOT WATER LOOP, Design Return Temperature [C], 0.00000
 Component Sizing Information, PlantLoop, TEST HOT WATER LOOP, Sizing option (Coincident/NonCoincident), 1.00000
 Component Sizing Information, PlantLoop, TEST HOT WATER LOOP, Minimum Loop Flow Rate [m3/s], 0.00000
 Component Sizing Information, PlantLoop, TEST HOT WATER LOOP, Design Capacity [W], 6049697.14165
 Component Sizing Information, Pump:VariableSpeed, HW PUMP, Design Flow Rate [m3/s], 2.88252E-002
 Component Sizing Information, Pump:VariableSpeed, HW PUMP, Design Power Consumption [W], 7364.47596
 Component Sizing Information, DistrictHeating:Water, DISTRICT HEATING, Design Size Nominal Capacity [W], 6049697.14165
! <Environment>,Environment Name,Environment Type, Start Date, End Date, Start DayOfWeek, Duration {#days}, Source:Start DayOfWeek,  Use Daylight Saving, Use Holidays, Apply Weekend Holiday Rule,  Use Rain Values, Use Snow Values, Sky Temperature Model
! <Environment:Special Days>, Special Day Name, Special Day Type, Source, Start Date, Duration {#days}
! <Environment:Daylight Saving>, Daylight Saving Indicator, Source, Start Date, End Date
! <Environment:WarmupDays>, NumberofWarmupDays
Environment,RUNPERIOD 1,WeatherFileRunPeriod,01/01/2017,12/31/2017,Sunday,365,Use RunPeriod Specified Day,No,No,No,Yes,Yes,Clark and Allen
Environment:Daylight Saving,Yes,InputFile,03/12,11/05
Environment:Special Days,NEW YEARS DAY,Holiday,InputFile,01/01,  1
Environment:Special Days,VETERANS DAY,Holiday,InputFile,11/11,  1
Environment:Special Days,CHRISTMAS,Holiday,InputFile,12/25,  1
Environment:Special Days,INDEPENDENCE DAY,Holiday,InputFile,07/04,  1
Environment:Special Days,MLK DAY,Holiday,InputFile,01/16,  1
Environment:Special Days,PRESIDENTS DAY,Holiday,InputFile,02/20,  1
Environment:Special Days,MEMORIAL DAY,Holiday,InputFile,05/29,  1
Environment:Special Days,LABOR DAY,Holiday,InputFile,09/04,  1
Environment:Special Days,COLUMBUS DAY,Holiday,InputFile,10/09,  1
Environment:Special Days,THANKSGIVING,Holiday,InputFile,11/23,  1
Environment:WarmupDays, 12
! <Tabular Report>,Style,Unit Conversion
Tabular Report,Commaandhtml,commaandhtml
! <Warmup Convergence Information>,Zone Name,Environment Type/Name,Average Warmup Temperature Difference {deltaC},Std Dev Warmup Temperature Difference {deltaC},Max Temperature Pass/Fail Convergence,Min Temperature Pass/Fail Convergence,Average Warmup Load Difference {W},Std Dev Warmup Load Difference {W},Heating Load Pass/Fail Convergence,Cooling Load Pass/Fail Convergence
 Warmup Convergence Information,BASEMENT,RunPeriod: RUNPERIOD 1,8.4106557993E-006,4.1008761667E-005,Pass,Pass,1.1605626844E-003,4.0060086346E-003,Pass,Pass
 Warmup Convergence Information,CORE_BOTTOM,RunPeriod: RUNPERIOD 1,2.6753839978E-006,4.7979962341E-006,Pass,Pass,4.1336577939E-003,1.4397900009E-002,Pass,Pass
 Warmup Convergence Information,CORE_MID,RunPeriod: RUNPERIOD 1,5.3870640746E-007,1.9766202353E-006,Pass,Pass,0.3372237018,2.9757624238,Pass,Pass
 Warmup Convergence Information,CORE_TOP,RunPeriod: RUNPERIOD 1,5.4343084406E-006,1.9649163832E-005,Pass,Pass,3.0627045451E-002,3.2316999534E-002,Pass,Pass
 Warmup Convergence Information,PERIMETER_BOT_ZN_3,RunPeriod: RUNPERIOD 1,2.2563971199E-005,7.3216687935E-005,Pass,Pass,2.5247389542E-002,2.1583485064E-002,Pass,Pass
 Warmup Convergence Information,PERIMETER_BOT_ZN_2,RunPeriod: RUNPERIOD 1,8.0091374152E-003,2.7322326815E-002,Pass,Pass,0.1626130028,0.8258855340,Pass,Pass
 Warmup Convergence Information,PERIMETER_BOT_ZN_1,RunPeriod: RUNPERIOD 1,5.1892492162E-002,0.1020101827,Pass,Pass,0.1070507652,0.2758060570,Pass,Pass
 Warmup Convergence Information,PERIMETER_BOT_ZN_4,RunPeriod: RUNPERIOD 1,2.7565312699E-002,4.5083812088E-002,Pass,Pass,0.1842714432,0.6108024975,Pass,Pass
 Warmup Convergence Information,PERIMETER_MID_ZN_3,RunPeriod: RUNPERIOD 1,5.7832633021E-005,1.2601624515E-004,Pass,Pass,1.7433687162E-002,1.2912085685E-002,Pass,Pass
 Warmup Convergence Information,PERIMETER_MID_ZN_2,RunPeriod: RUNPERIOD 1,2.4051653432E-005,7.1999302118E-005,Pass,Pass,9.1785433873E-002,0.2890961535,Pass,Pass
 Warmup Convergence Information,PERIMETER_MID_ZN_1,RunPeriod: RUNPERIOD 1,2.5249434623E-002,6.8009448530E-002,Pass,Pass,0.1932632920,0.7517502462,Pass,Pass
 Warmup Convergence Information,PERIMETER_MID_ZN_4,RunPeriod: RUNPERIOD 1,2.4785726090E-005,6.9124726107E-005,Pass,Pass,2.9501476574E-002,3.1414646426E-002,Pass,Pass
 Warmup Convergence Information,PERIMETER_TOP_ZN_3,RunPeriod: RUNPERIOD 1,6.9460756859E-005,1.2807604660E-004,Pass,Pass,1.6916341165E-002,1.1904274490E-002,Pass,Pass
 Warmup Convergence Information,PERIMETER_TOP_ZN_2,RunPeriod: RUNPERIOD 1,2.5203940013E-005,6.4460109814E-005,Pass,Pass,3.4037949373E-002,4.3159696864E-002,Pass,Pass
 Warmup Convergence Information,PERIMETER_TOP_ZN_1,RunPeriod: RUNPERIOD 1,1.3233616770E-002,4.3628629755E-002,Pass,Pass,0.2579065629,1.2342680998,Pass,Pass
 Warmup Convergence Information,PERIMETER_TOP_ZN_4,RunPeriod: RUNPERIOD 1,2.7614676323E-005,8.1045696260E-005,Pass,Pass,2.5148655844E-002,2.2816536139E-002,Pass,Pass
 Warmup Convergence Information,GROUNDFLOOR_PLENUM,RunPeriod: RUNPERIOD 1,9.6565091209E-003,6.4663610889E-003,Pass,Pass,0.0000000000,0.0000000000,Pass,Pass
 Warmup Convergence Information,MIDFLOOR_PLENUM,RunPeriod: RUNPERIOD 1,1.3974034066E-002,1.0316007396E-002,Pass,Pass,0.0000000000,0.0000000000,Pass,Pass
 Warmup Convergence Information,TOPFLOOR_PLENUM,RunPeriod: RUNPERIOD 1,4.5315323238E-002,3.1624276065E-002,Pass,Pass,0.0000000000,0.0000000000,Pass,Pass
 Warmup Convergence Information,DATACENTER_BOT_ZN_6,RunPeriod: RUNPERIOD 1,1.6218406073E-002,1.2128422175E-002,Pass,Pass,1.6564298577E-002,1.6438852487E-002,Pass,Pass
 Warmup Convergence Information,DATACENTER_MID_ZN_6,RunPeriod: RUNPERIOD 1,1.4418476207E-002,9.6203577509E-003,Pass,Pass,1.9128610350E-002,1.9859566820E-002,Pass,Pass
 Warmup Convergence Information,DATACENTER_TOP_ZN_6,RunPeriod: RUNPERIOD 1,2.0265620113E-002,1.3281524878E-002,Pass,Pass,2.1843283218E-002,2.4242761939E-002,Pass,Pass
 Warmup Convergence Information,DATACENTER_BASEMENT_ZN_6,RunPeriod: RUNPERIOD 1,1.7813702254E-005,4.1498852139E-005,Pass,Pass,9.2524180663E-005,1.2652525609E-004,Pass,Pass
