Program Version,EnergyPlus, Version 24.2.0-94a887817b, YMD=2025.04.10 17:22
! This file shows details about the branches, nodes, and other
! elements of the flow connections.
! This file is intended for use in "debugging" potential problems
! that may also be detected by the program, but may be more easily
! identified by "eye".
! This file is also intended to support software which draws a
! schematic diagram of the HVAC system.
! ===============================================================
! #Nodes,<Number of Unique Nodes>
 #Nodes,334
! <Node>,<NodeNumber>,<Node Name>,<Node Fluid Type>,<# Times Node Referenced After Definition>
 Node,1,VAV WITH REHEAT_OAINLET NODE,Air,4
 Node,2,BASEMENT VAV BOX OUTLET NODE,Air,4
 Node,3,RETAIL_1_FLR_1 VAV BOX OUTLET NODE,Air,4
 Node,4,RETAIL_2_FLR_1 VAV BOX OUTLET NODE,Air,4
 Node,5,MECH_FLR_1 VAV BOX OUTLET NODE,Air,4
 Node,6,STORAGE_FLR_1 VAV BOX OUTLET NODE,Air,4
 Node,7,LAUNDRY_FLR_1 VAV BOX OUTLET NODE,Air,4
 Node,8,LAUNDRY_FLR_1 EXHAUST FAN NODE,Air,2
 Node,9,CAFE_FLR_1 VAV BOX OUTLET NODE,Air,4
 Node,10,LOBBY_FLR_1 VAV BOX OUTLET NODE,Air,4
 Node,11,LOBBY_FLR_1 EXHAUST FAN NODE,Air,2
 Node,12,CORRIDOR_FLR_3 VAV BOX OUTLET NODE,Air,4
 Node,13,CORRIDOR_FLR_6 VAV BOX OUTLET NODE,Air,4
 Node,14,BANQUET_FLR_6 VAV BOX OUTLET NODE,Air,4
 Node,15,BANQUET_FLR_6 EXHAUST FAN NODE,Air,2
 Node,16,DINING_FLR_6 VAV BOX OUTLET NODE,Air,4
 Node,17,DINING_FLR_6 EXHAUST FAN NODE,Air,2
 Node,18,KITCHEN_FLR_6 VAV BOX OUTLET NODE,Air,4
 Node,19,KITCHEN_FLR_6 EXHAUST FAN NODE,Air,2
 Node,20,FLR_3_DOAS_OAINLET NODE,Air,4
 Node,21,ROOM_1_FLR_3 FAN COIL RETURN,Air,3
 Node,22,ROOM_1_FLR_3 DOAS DIRECT AIR INLET NODE,Air,3
 Node,23,ROOM_1_FLR_3 FAN COIL SUPPLY INLET,Air,3
 Node,24,ROOM_2_FLR_3 FAN COIL RETURN,Air,3
 Node,25,ROOM_2_FLR_3 DOAS DIRECT AIR INLET NODE,Air,3
 Node,26,ROOM_2_FLR_3 FAN COIL SUPPLY INLET,Air,3
 Node,27,ROOM_3_MULT19_FLR_3 FAN COIL RETURN,Air,3
 Node,28,ROOM_3_MULT19_FLR_3 DOAS DIRECT AIR INLET NODE,Air,3
 Node,29,ROOM_3_MULT19_FLR_3 FAN COIL SUPPLY INLET,Air,3
 Node,30,ROOM_4_MULT19_FLR_3 FAN COIL RETURN,Air,3
 Node,31,ROOM_4_MULT19_FLR_3 DOAS DIRECT AIR INLET NODE,Air,3
 Node,32,ROOM_4_MULT19_FLR_3 FAN COIL SUPPLY INLET,Air,3
 Node,33,ROOM_5_FLR_3 FAN COIL RETURN,Air,3
 Node,34,ROOM_5_FLR_3 DOAS DIRECT AIR INLET NODE,Air,3
 Node,35,ROOM_5_FLR_3 FAN COIL SUPPLY INLET,Air,3
 Node,36,ROOM_6_FLR_3 FAN COIL RETURN,Air,3
 Node,37,ROOM_6_FLR_3 DOAS DIRECT AIR INLET NODE,Air,3
 Node,38,ROOM_6_FLR_3 FAN COIL SUPPLY INLET,Air,3
 Node,39,ROOM_1_FLR_6 FAN COIL RETURN,Air,3
 Node,40,ROOM_1_FLR_6 DOAS DIRECT AIR INLET NODE,Air,3
 Node,41,ROOM_1_FLR_6 FAN COIL SUPPLY INLET,Air,3
 Node,42,ROOM_2_FLR_6 FAN COIL RETURN,Air,3
 Node,43,ROOM_2_FLR_6 DOAS DIRECT AIR INLET NODE,Air,3
 Node,44,ROOM_2_FLR_6 FAN COIL SUPPLY INLET,Air,3
 Node,45,ROOM_3_MULT9_FLR_6 FAN COIL RETURN,Air,3
 Node,46,ROOM_3_MULT9_FLR_6 DOAS DIRECT AIR INLET NODE,Air,3
 Node,47,ROOM_3_MULT9_FLR_6 FAN COIL SUPPLY INLET,Air,3
 Node,48,HEATSYS1 SUPPLY INLET NODE,Water,3
 Node,49,HEATSYS1 PUMP-HEATSYS1 BOILERNODEVIACONNECTOR,Water,1
 Node,50,HEATSYS1 PUMP-HEATSYS1 BOILERNODE,Water,1
 Node,51,HEATSYS1 SUPPLY EQUIPMENT OUTLET NODE,Water,1
 Node,52,HEATSYS1 SUPPLY EQUIP BYPASS INLET NODE,Water,1
 Node,53,HEATSYS1 SUPPLY EQUIP BYPASS OUTLET NODE,Water,1
 Node,54,HEATSYS1 SUPPLY MIXER-HEATSYS1 SUPPLY OUTLET PIPE,Water,1
 Node,55,HEATSYS1 SUPPLY OUTLET NODE,Water,4
 Node,56,HEATSYS1 DEMAND INLET NODE,Water,2
 Node,57,HEATSYS1 DEMAND INLET PIPE-HEATSYS1 DEMAND MIXER,Water,1
 Node,58,HEATSYS1 DEMAND BYPASS PIPE INLET NODE,Water,1
 Node,59,HEATSYS1 DEMAND BYPASS PIPE OUTLET NODE,Water,1
 Node,60,HEATSYS1 DEMAND MIXER-HEATSYS1 DEMAND OUTLET PIPE,Water,1
 Node,61,HEATSYS1 DEMAND OUTLET NODE,Water,2
 Node,62,COOLSYS1 SUPPLY INLET NODE,Water,2
 Node,63,COOLSYS1 PUMP-COOLSYS1 CHILLERNODEVIACONNECTOR,Water,1
 Node,64,COOLSYS1 PUMP-COOLSYS1 CHILLER1NODE,Water,1
 Node,65,COOLSYS1 SUPPLY EQUIPMENT OUTLET NODE 1,Water,2
 Node,66,COOLSYS1 SUPPLY EQUIP BYPASS INLET NODE,Water,1
 Node,67,COOLSYS1 SUPPLY EQUIP BYPASS OUTLET NODE,Water,1
 Node,68,COOLSYS1 SUPPLY MIXER-COOLSYS1 SUPPLY OUTLET PIPE,Water,1
 Node,69,COOLSYS1 SUPPLY OUTLET NODE,Water,4
 Node,70,COOLSYS1 DEMAND INLET NODE,Water,3
 Node,71,COOLSYS1 PUMP SECONDARY-COOLSYS1 DEMAND MIXER,Water,1
 Node,72,COOLSYS1 DEMAND MIXER-COOLSYS1 DEMAND OUTLET PIPE,Water,1
 Node,73,COOLSYS1 DEMAND OUTLET NODE,Water,2
 Node,74,VAV WITH REHEAT SUPPLY EQUIPMENT INLET NODE,Air,4
 Node,75,VAV WITH REHEAT_OA-VAV WITH REHEAT_COOLCNODE,Air,7
 Node,76,VAV WITH REHEAT_COOLC-VAV WITH REHEAT_HEATCNODE,Air,5
 Node,77,VAV WITH REHEAT_HEATC-VAV WITH REHEAT FANNODE,Air,8
 Node,78,VAV WITH REHEAT SUPPLY EQUIPMENT OUTLET NODE,Air,9
 Node,79,VAV WITH REHEAT CCOIL WATER INLET,Water,2
 Node,80,VAV WITH REHEAT CCOIL WATER OUTLET,Water,1
 Node,81,VAV WITH REHEAT HCOIL WATER INLET,Water,2
 Node,82,VAV WITH REHEAT HCOIL WATER OUTLET,Water,1
 Node,83,BASEMENT HCOIL WATER INLET,Water,1
 Node,84,BASEMENT HCOIL WATER OUTLET,Water,1
 Node,85,RETAIL_1_FLR_1 HCOIL WATER INLET,Water,1
 Node,86,RETAIL_1_FLR_1 HCOIL WATER OUTLET,Water,1
 Node,87,RETAIL_2_FLR_1 HCOIL WATER INLET,Water,1
 Node,88,RETAIL_2_FLR_1 HCOIL WATER OUTLET,Water,1
 Node,89,MECH_FLR_1 HCOIL WATER INLET,Water,1
 Node,90,MECH_FLR_1 HCOIL WATER OUTLET,Water,1
 Node,91,STORAGE_FLR_1 HCOIL WATER INLET,Water,1
 Node,92,STORAGE_FLR_1 HCOIL WATER OUTLET,Water,1
 Node,93,LAUNDRY_FLR_1 HCOIL WATER INLET,Water,1
 Node,94,LAUNDRY_FLR_1 HCOIL WATER OUTLET,Water,1
 Node,95,CAFE_FLR_1 HCOIL WATER INLET,Water,1
 Node,96,CAFE_FLR_1 HCOIL WATER OUTLET,Water,1
 Node,97,LOBBY_FLR_1 HCOIL WATER INLET,Water,1
 Node,98,LOBBY_FLR_1 HCOIL WATER OUTLET,Water,1
 Node,99,CORRIDOR_FLR_3 HCOIL WATER INLET,Water,1
 Node,100,CORRIDOR_FLR_3 HCOIL WATER OUTLET,Water,1
 Node,101,CORRIDOR_FLR_6 HCOIL WATER INLET,Water,1
 Node,102,CORRIDOR_FLR_6 HCOIL WATER OUTLET,Water,1
 Node,103,BANQUET_FLR_6 HCOIL WATER INLET,Water,1
 Node,104,BANQUET_FLR_6 HCOIL WATER OUTLET,Water,1
 Node,105,DINING_FLR_6 HCOIL WATER INLET,Water,1
 Node,106,DINING_FLR_6 HCOIL WATER OUTLET,Water,1
 Node,107,KITCHEN_FLR_6 HCOIL WATER INLET,Water,1
 Node,108,KITCHEN_FLR_6 HCOIL WATER OUTLET,Water,1
 Node,109,FLR_3_DOAS SUPPLY EQUIPMENT INLET NODE,Air,4
 Node,110,FLR_3_DOAS_OA-FLR_3_DOAS_COOLCNODE,Air,7
 Node,111,FLR_3_DOAS_COOLC-FLR_3_DOAS_HEATCNODE,Air,5
 Node,112,FLR_3_DOAS_HEATC-FLR_3_DOAS FANNODE,Air,8
 Node,113,FLR_3_DOAS SUPPLY EQUIPMENT OUTLET NODE,Air,9
 Node,114,FLR_3_DOAS CCOIL WATER INLET,Water,2
 Node,115,FLR_3_DOAS CCOIL WATER OUTLET,Water,1
 Node,116,FLR_3_DOAS HCOIL WATER INLET,Water,2
 Node,117,FLR_3_DOAS HCOIL WATER OUTLET,Water,1
 Node,118,ROOM_1_FLR_3 FAN COIL CCOIL WATER INLET,Water,1
 Node,119,ROOM_1_FLR_3 FAN COIL CCOIL WATER OUTLET,Water,1
 Node,120,ROOM_1_FLR_3 FAN COIL HCOIL WATER INLET,Water,1
 Node,121,ROOM_1_FLR_3 FAN COIL HCOIL WATER OUTLET,Water,1
 Node,122,ROOM_2_FLR_3 FAN COIL CCOIL WATER INLET,Water,1
 Node,123,ROOM_2_FLR_3 FAN COIL CCOIL WATER OUTLET,Water,1
 Node,124,ROOM_2_FLR_3 FAN COIL HCOIL WATER INLET,Water,1
 Node,125,ROOM_2_FLR_3 FAN COIL HCOIL WATER OUTLET,Water,1
 Node,126,ROOM_3_MULT19_FLR_3 FAN COIL CCOIL WATER INLET,Water,1
 Node,127,ROOM_3_MULT19_FLR_3 FAN COIL CCOIL WATER OUTLET,Water,1
 Node,128,ROOM_3_MULT19_FLR_3 FAN COIL HCOIL WATER INLET,Water,1
 Node,129,ROOM_3_MULT19_FLR_3 FAN COIL HCOIL WATER OUTLET,Water,1
 Node,130,ROOM_4_MULT19_FLR_3 FAN COIL CCOIL WATER INLET,Water,1
 Node,131,ROOM_4_MULT19_FLR_3 FAN COIL CCOIL WATER OUTLET,Water,1
 Node,132,ROOM_4_MULT19_FLR_3 FAN COIL HCOIL WATER INLET,Water,1
 Node,133,ROOM_4_MULT19_FLR_3 FAN COIL HCOIL WATER OUTLET,Water,1
 Node,134,ROOM_5_FLR_3 FAN COIL CCOIL WATER INLET,Water,1
 Node,135,ROOM_5_FLR_3 FAN COIL CCOIL WATER OUTLET,Water,1
 Node,136,ROOM_5_FLR_3 FAN COIL HCOIL WATER INLET,Water,1
 Node,137,ROOM_5_FLR_3 FAN COIL HCOIL WATER OUTLET,Water,1
 Node,138,ROOM_6_FLR_3 FAN COIL CCOIL WATER INLET,Water,1
 Node,139,ROOM_6_FLR_3 FAN COIL CCOIL WATER OUTLET,Water,1
 Node,140,ROOM_6_FLR_3 FAN COIL HCOIL WATER INLET,Water,1
 Node,141,ROOM_6_FLR_3 FAN COIL HCOIL WATER OUTLET,Water,1
 Node,142,ROOM_1_FLR_6 FAN COIL CCOIL WATER INLET,Water,1
 Node,143,ROOM_1_FLR_6 FAN COIL CCOIL WATER OUTLET,Water,1
 Node,144,ROOM_1_FLR_6 FAN COIL HCOIL WATER INLET,Water,1
 Node,145,ROOM_1_FLR_6 FAN COIL HCOIL WATER OUTLET,Water,1
 Node,146,ROOM_2_FLR_6 FAN COIL CCOIL WATER INLET,Water,1
 Node,147,ROOM_2_FLR_6 FAN COIL CCOIL WATER OUTLET,Water,1
 Node,148,ROOM_2_FLR_6 FAN COIL HCOIL WATER INLET,Water,1
 Node,149,ROOM_2_FLR_6 FAN COIL HCOIL WATER OUTLET,Water,1
 Node,150,ROOM_3_MULT9_FLR_6 FAN COIL CCOIL WATER INLET,Water,1
 Node,151,ROOM_3_MULT9_FLR_6 FAN COIL CCOIL WATER OUTLET,Water,1
 Node,152,ROOM_3_MULT9_FLR_6 FAN COIL HCOIL WATER INLET,Water,1
 Node,153,ROOM_3_MULT9_FLR_6 FAN COIL HCOIL WATER OUTLET,Water,1
 Node,154,SWHSYS1 SUPPLY INLET NODE,Water,2
 Node,155,SWHSYS1 PUMP-WATER HEATERNODEVIACONNECTOR,Water,1
 Node,156,SWHSYS1 PUMP-WATER HEATERNODE,Water,1
 Node,157,SWHSYS1 SUPPLY EQUIPMENT OUTLET NODE,Water,1
 Node,158,SWHSYS1 SUPPLY EQUIP BYPASS INLET NODE,Water,1
 Node,159,SWHSYS1 SUPPLY EQUIP BYPASS OUTLET NODE,Water,1
 Node,160,SWHSYS1 SUPPLY MIXER-SWHSYS1 SUPPLY OUTLET PIPE,Water,1
 Node,161,SWHSYS1 SUPPLY OUTLET NODE,Water,4
 Node,162,SWHSYS1 DEMAND INLET NODE,Water,2
 Node,163,SWHSYS1 DEMAND INLET PIPE-SWHSYS1 DEMAND MIXER,Water,1
 Node,164,SWHSYS1 DEMAND BYPASS PIPE INLET NODE,Water,1
 Node,165,SWHSYS1 DEMAND BYPASS PIPE OUTLET NODE,Water,1
 Node,166,SWHSYS1 DEMAND MIXER-SWHSYS1 DEMAND OUTLET PIPE,Water,1
 Node,167,SWHSYS1 DEMAND OUTLET NODE,Water,2
 Node,168,ROOM_1_FLR_3 WATER EQUIPMENT WATER INLET NODE,Water,1
 Node,169,ROOM_1_FLR_3 WATER EQUIPMENT WATER OUTLET NODE,Water,1
 Node,170,ROOM_2_FLR_3 WATER EQUIPMENT WATER INLET NODE,Water,1
 Node,171,ROOM_2_FLR_3 WATER EQUIPMENT WATER OUTLET NODE,Water,1
 Node,172,ROOM_3_MULT19_FLR_3 WATER EQUIPMENT WATER INLET NODE,Water,1
 Node,173,ROOM_3_MULT19_FLR_3 WATER EQUIPMENT WATER OUTLET NODE,Water,1
 Node,174,ROOM_4_MULT19_FLR_3 WATER EQUIPMENT WATER INLET NODE,Water,1
 Node,175,ROOM_4_MULT19_FLR_3 WATER EQUIPMENT WATER OUTLET NODE,Water,1
 Node,176,ROOM_5_FLR_3 WATER EQUIPMENT WATER INLET NODE,Water,1
 Node,177,ROOM_5_FLR_3 WATER EQUIPMENT WATER OUTLET NODE,Water,1
 Node,178,ROOM_6_FLR_3 WATER EQUIPMENT WATER INLET NODE,Water,1
 Node,179,ROOM_6_FLR_3 WATER EQUIPMENT WATER OUTLET NODE,Water,1
 Node,180,ROOM_1_FLR_6 WATER EQUIPMENT WATER INLET NODE,Water,1
 Node,181,ROOM_1_FLR_6 WATER EQUIPMENT WATER OUTLET NODE,Water,1
 Node,182,ROOM_2_FLR_6 WATER EQUIPMENT WATER INLET NODE,Water,1
 Node,183,ROOM_2_FLR_6 WATER EQUIPMENT WATER OUTLET NODE,Water,1
 Node,184,ROOM_3_MULT9_FLR_6 WATER EQUIPMENT WATER INLET NODE,Water,1
 Node,185,ROOM_3_MULT9_FLR_6 WATER EQUIPMENT WATER OUTLET NODE,Water,1
 Node,186,KITCHEN_FLR_6 WATER EQUIPMENT WATER INLET NODE,Water,1
 Node,187,KITCHEN_FLR_6 WATER EQUIPMENT WATER OUTLET NODE,Water,1
 Node,188,BASEMENT AIR NODE,Air,0
 Node,189,BASEMENT RETURN AIR NODE,Air,1
 Node,190,RETAIL_1_FLR_1 AIR NODE,Air,0
 Node,191,RETAIL_1_FLR_1 RETURN AIR NODE,Air,1
 Node,192,RETAIL_2_FLR_1 AIR NODE,Air,0
 Node,193,RETAIL_2_FLR_1 RETURN AIR NODE,Air,1
 Node,194,MECH_FLR_1 AIR NODE,Air,0
 Node,195,MECH_FLR_1 RETURN AIR NODE,Air,1
 Node,196,STORAGE_FLR_1 AIR NODE,Air,0
 Node,197,STORAGE_FLR_1 RETURN AIR NODE,Air,1
 Node,198,LAUNDRY_FLR_1 AIR NODE,Air,0
 Node,199,LAUNDRY_FLR_1 RETURN AIR NODE,Air,1
 Node,200,CAFE_FLR_1 AIR NODE,Air,0
 Node,201,CAFE_FLR_1 RETURN AIR NODE,Air,1
 Node,202,LOBBY_FLR_1 AIR NODE,Air,0
 Node,203,LOBBY_FLR_1 RETURN AIR NODE,Air,1
 Node,204,CORRIDOR_FLR_3 AIR NODE,Air,0
 Node,205,CORRIDOR_FLR_3 RETURN AIR NODE,Air,1
 Node,206,CORRIDOR_FLR_6 AIR NODE,Air,0
 Node,207,CORRIDOR_FLR_6 RETURN AIR NODE,Air,1
 Node,208,BANQUET_FLR_6 AIR NODE,Air,0
 Node,209,BANQUET_FLR_6 RETURN AIR NODE,Air,1
 Node,210,DINING_FLR_6 AIR NODE,Air,0
 Node,211,DINING_FLR_6 RETURN AIR NODE,Air,1
 Node,212,KITCHEN_FLR_6 AIR NODE,Air,0
 Node,213,KITCHEN_FLR_6 RETURN AIR NODE,Air,1
 Node,214,ROOM_1_FLR_3 ZONE AIR NODE,Air,0
 Node,215,ROOM_1_FLR_3 DOAS RETURN NODE,Air,1
 Node,216,ROOM_2_FLR_3 ZONE AIR NODE,Air,0
 Node,217,ROOM_2_FLR_3 DOAS RETURN NODE,Air,1
 Node,218,ROOM_3_MULT19_FLR_3 ZONE AIR NODE,Air,0
 Node,219,ROOM_3_MULT19_FLR_3 DOAS RETURN NODE,Air,1
 Node,220,ROOM_4_MULT19_FLR_3 ZONE AIR NODE,Air,0
 Node,221,ROOM_4_MULT19_FLR_3 DOAS RETURN NODE,Air,1
 Node,222,ROOM_5_FLR_3 ZONE AIR NODE,Air,0
 Node,223,ROOM_5_FLR_3 DOAS RETURN NODE,Air,1
 Node,224,ROOM_6_FLR_3 ZONE AIR NODE,Air,0
 Node,225,ROOM_6_FLR_3 DOAS RETURN NODE,Air,1
 Node,226,ROOM_1_FLR_6 ZONE AIR NODE,Air,0
 Node,227,ROOM_1_FLR_6 DOAS RETURN NODE,Air,1
 Node,228,ROOM_2_FLR_6 ZONE AIR NODE,Air,0
 Node,229,ROOM_2_FLR_6 DOAS RETURN NODE,Air,1
 Node,230,ROOM_3_MULT9_FLR_6 ZONE AIR NODE,Air,0
 Node,231,ROOM_3_MULT9_FLR_6 DOAS RETURN NODE,Air,1
 Node,232,VAV WITH REHEAT ZONE EQUIPMENT INLET NODE,Air,2
 Node,233,FLR_3_DOAS ZONE EQUIPMENT INLET NODE,Air,2
 Node,234,VAV WITH REHEAT ZONE EQUIPMENT OUTLET NODE,Air,2
 Node,235,FLR_3_DOAS ZONE EQUIPMENT OUTLET NODE,Air,2
 Node,236,RACK1_CONDENSERINLET,Air,1
 Node,237,RACK2_CONDENSERINLET,Air,1
 Node,238,COOLSYS1 CHILLERCONDENSER OA INLET,Air,1
 Node,239,VAV WITH REHEAT_COOLC COND OA NODE,Air,0
 Node,240,VAV WITH REHEAT_COOLCOA REF NODE,Air,0
 Node,241,FLR_3_DOAS_COOLC COND OA NODE,Air,0
 Node,242,FLR_3_DOAS_COOLCOA REF NODE,Air,0
 Node,243,ROOM_1_FLR_3 FAN COIL OUTSIDE AIR INLET,Air,1
 Node,244,ROOM_2_FLR_3 FAN COIL OUTSIDE AIR INLET,Air,1
 Node,245,ROOM_3_MULT19_FLR_3 FAN COIL OUTSIDE AIR INLET,Air,1
 Node,246,ROOM_4_MULT19_FLR_3 FAN COIL OUTSIDE AIR INLET,Air,1
 Node,247,ROOM_5_FLR_3 FAN COIL OUTSIDE AIR INLET,Air,1
 Node,248,ROOM_6_FLR_3 FAN COIL OUTSIDE AIR INLET,Air,1
 Node,249,ROOM_1_FLR_6 FAN COIL OUTSIDE AIR INLET,Air,1
 Node,250,ROOM_2_FLR_6 FAN COIL OUTSIDE AIR INLET,Air,1
 Node,251,ROOM_3_MULT9_FLR_6 FAN COIL OUTSIDE AIR INLET,Air,1
 Node,252,VAV WITH REHEAT HEAT RECOVERY OUTLET NODE,Air,2
 Node,253,FLR_3_DOAS HEAT RECOVERY OUTLET NODE,Air,2
 Node,254,COOLSYS1 CHILLERCONDENSER OUTLET,Air,0
 Node,255,BASEMENT VAV BOX INLET NODE,Air,1
 Node,256,RETAIL_1_FLR_1 VAV BOX INLET NODE,Air,1
 Node,257,RETAIL_2_FLR_1 VAV BOX INLET NODE,Air,1
 Node,258,MECH_FLR_1 VAV BOX INLET NODE,Air,1
 Node,259,STORAGE_FLR_1 VAV BOX INLET NODE,Air,1
 Node,260,LAUNDRY_FLR_1 VAV BOX INLET NODE,Air,1
 Node,261,CAFE_FLR_1 VAV BOX INLET NODE,Air,1
 Node,262,LOBBY_FLR_1 VAV BOX INLET NODE,Air,1
 Node,263,CORRIDOR_FLR_3 VAV BOX INLET NODE,Air,1
 Node,264,CORRIDOR_FLR_6 VAV BOX INLET NODE,Air,1
 Node,265,BANQUET_FLR_6 VAV BOX INLET NODE,Air,1
 Node,266,DINING_FLR_6 VAV BOX INLET NODE,Air,1
 Node,267,KITCHEN_FLR_6 VAV BOX INLET NODE,Air,1
 Node,268,ROOM_1_FLR_3 DOAS SUPPLY NODE,Air,1
 Node,269,ROOM_2_FLR_3 DOAS SUPPLY NODE,Air,1
 Node,270,ROOM_3_MULT19_FLR_3 DOAS SUPPLY NODE,Air,1
 Node,271,ROOM_4_MULT19_FLR_3 DOAS SUPPLY NODE,Air,1
 Node,272,ROOM_5_FLR_3 DOAS SUPPLY NODE,Air,1
 Node,273,ROOM_6_FLR_3 DOAS SUPPLY NODE,Air,1
 Node,274,ROOM_1_FLR_6 DOAS SUPPLY NODE,Air,1
 Node,275,ROOM_2_FLR_6 DOAS SUPPLY NODE,Air,1
 Node,276,ROOM_3_MULT9_FLR_6 DOAS SUPPLY NODE,Air,1
 Node,277,BASEMENT VAV BOX DAMPER NODE,Air,1
 Node,278,RETAIL_1_FLR_1 VAV BOX DAMPER NODE,Air,1
 Node,279,RETAIL_2_FLR_1 VAV BOX DAMPER NODE,Air,1
 Node,280,MECH_FLR_1 VAV BOX DAMPER NODE,Air,1
 Node,281,STORAGE_FLR_1 VAV BOX DAMPER NODE,Air,1
 Node,282,LAUNDRY_FLR_1 VAV BOX DAMPER NODE,Air,1
 Node,283,CAFE_FLR_1 VAV BOX DAMPER NODE,Air,1
 Node,284,LOBBY_FLR_1 VAV BOX DAMPER NODE,Air,1
 Node,285,CORRIDOR_FLR_3 VAV BOX DAMPER NODE,Air,1
 Node,286,CORRIDOR_FLR_6 VAV BOX DAMPER NODE,Air,1
 Node,287,BANQUET_FLR_6 VAV BOX DAMPER NODE,Air,1
 Node,288,DINING_FLR_6 VAV BOX DAMPER NODE,Air,1
 Node,289,KITCHEN_FLR_6 VAV BOX DAMPER NODE,Air,1
 Node,290,ROOM_1_FLR_3 FAN COIL COOLING COIL OUTLET,Air,1
 Node,291,ROOM_2_FLR_3 FAN COIL COOLING COIL OUTLET,Air,1
 Node,292,ROOM_3_MULT19_FLR_3 FAN COIL COOLING COIL OUTLET,Air,1
 Node,293,ROOM_4_MULT19_FLR_3 FAN COIL COOLING COIL OUTLET,Air,1
 Node,294,ROOM_5_FLR_3 FAN COIL COOLING COIL OUTLET,Air,1
 Node,295,ROOM_6_FLR_3 FAN COIL COOLING COIL OUTLET,Air,1
 Node,296,ROOM_1_FLR_6 FAN COIL COOLING COIL OUTLET,Air,1
 Node,297,ROOM_2_FLR_6 FAN COIL COOLING COIL OUTLET,Air,1
 Node,298,ROOM_3_MULT9_FLR_6 FAN COIL COOLING COIL OUTLET,Air,1
 Node,299,ROOM_1_FLR_3 FAN COIL SUPPLY FAN OUTLET,Air,1
 Node,300,ROOM_2_FLR_3 FAN COIL SUPPLY FAN OUTLET,Air,1
 Node,301,ROOM_3_MULT19_FLR_3 FAN COIL SUPPLY FAN OUTLET,Air,1
 Node,302,ROOM_4_MULT19_FLR_3 FAN COIL SUPPLY FAN OUTLET,Air,1
 Node,303,ROOM_5_FLR_3 FAN COIL SUPPLY FAN OUTLET,Air,1
 Node,304,ROOM_6_FLR_3 FAN COIL SUPPLY FAN OUTLET,Air,1
 Node,305,ROOM_1_FLR_6 FAN COIL SUPPLY FAN OUTLET,Air,1
 Node,306,ROOM_2_FLR_6 FAN COIL SUPPLY FAN OUTLET,Air,1
 Node,307,ROOM_3_MULT9_FLR_6 FAN COIL SUPPLY FAN OUTLET,Air,1
 Node,308,LAUNDRY_FLR_1 EXHAUST FAN OUTLET NODE,Air,0
 Node,309,LOBBY_FLR_1 EXHAUST FAN OUTLET NODE,Air,0
 Node,310,BANQUET_FLR_6 EXHAUST FAN OUTLET NODE,Air,0
 Node,311,DINING_FLR_6 EXHAUST FAN OUTLET NODE,Air,0
 Node,312,KITCHEN_FLR_6 EXHAUST FAN OUTLET NODE,Air,0
 Node,313,ROOM_1_FLR_3 FAN COIL MIXED AIR OUTLET,Air,1
 Node,314,ROOM_2_FLR_3 FAN COIL MIXED AIR OUTLET,Air,1
 Node,315,ROOM_3_MULT19_FLR_3 FAN COIL MIXED AIR OUTLET,Air,1
 Node,316,ROOM_4_MULT19_FLR_3 FAN COIL MIXED AIR OUTLET,Air,1
 Node,317,ROOM_5_FLR_3 FAN COIL MIXED AIR OUTLET,Air,1
 Node,318,ROOM_6_FLR_3 FAN COIL MIXED AIR OUTLET,Air,1
 Node,319,ROOM_1_FLR_6 FAN COIL MIXED AIR OUTLET,Air,1
 Node,320,ROOM_2_FLR_6 FAN COIL MIXED AIR OUTLET,Air,1
 Node,321,ROOM_3_MULT9_FLR_6 FAN COIL MIXED AIR OUTLET,Air,1
 Node,322,VAV WITH REHEAT_OARELIEF NODE,Air,2
 Node,323,FLR_3_DOAS_OARELIEF NODE,Air,2
 Node,324,ROOM_1_FLR_3 FAN COIL RELIEF AIR OUTLET,Air,0
 Node,325,ROOM_2_FLR_3 FAN COIL RELIEF AIR OUTLET,Air,0
 Node,326,ROOM_3_MULT19_FLR_3 FAN COIL RELIEF AIR OUTLET,Air,0
 Node,327,ROOM_4_MULT19_FLR_3 FAN COIL RELIEF AIR OUTLET,Air,0
 Node,328,ROOM_5_FLR_3 FAN COIL RELIEF AIR OUTLET,Air,0
 Node,329,ROOM_6_FLR_3 FAN COIL RELIEF AIR OUTLET,Air,0
 Node,330,ROOM_1_FLR_6 FAN COIL RELIEF AIR OUTLET,Air,0
 Node,331,ROOM_2_FLR_6 FAN COIL RELIEF AIR OUTLET,Air,0
 Node,332,ROOM_3_MULT9_FLR_6 FAN COIL RELIEF AIR OUTLET,Air,0
 Node,333,VAV WITH REHEAT HEAT RECOVERY RELIEF OUTLET,Air,0
 Node,334,FLR_3_DOAS HEAT RECOVERY RELIEF OUTLET,Air,0
! ===============================================================
! Suspicious nodes have 0 references.  It is normal for some nodes, however.
! Listing nodes with 0 references (culled from previous list):
! <Suspicious Node>,<NodeNumber>,<Node Name>,<Node Fluid Type>,<# Times Node Referenced After Definition>
 Suspicious Node,188,BASEMENT AIR NODE,Air,0
 Suspicious Node,190,RETAIL_1_FLR_1 AIR NODE,Air,0
 Suspicious Node,192,RETAIL_2_FLR_1 AIR NODE,Air,0
 Suspicious Node,194,MECH_FLR_1 AIR NODE,Air,0
 Suspicious Node,196,STORAGE_FLR_1 AIR NODE,Air,0
 Suspicious Node,198,LAUNDRY_FLR_1 AIR NODE,Air,0
 Suspicious Node,200,CAFE_FLR_1 AIR NODE,Air,0
 Suspicious Node,202,LOBBY_FLR_1 AIR NODE,Air,0
 Suspicious Node,204,CORRIDOR_FLR_3 AIR NODE,Air,0
 Suspicious Node,206,CORRIDOR_FLR_6 AIR NODE,Air,0
 Suspicious Node,208,BANQUET_FLR_6 AIR NODE,Air,0
 Suspicious Node,210,DINING_FLR_6 AIR NODE,Air,0
 Suspicious Node,212,KITCHEN_FLR_6 AIR NODE,Air,0
 Suspicious Node,214,ROOM_1_FLR_3 ZONE AIR NODE,Air,0
 Suspicious Node,216,ROOM_2_FLR_3 ZONE AIR NODE,Air,0
 Suspicious Node,218,ROOM_3_MULT19_FLR_3 ZONE AIR NODE,Air,0
 Suspicious Node,220,ROOM_4_MULT19_FLR_3 ZONE AIR NODE,Air,0
 Suspicious Node,222,ROOM_5_FLR_3 ZONE AIR NODE,Air,0
 Suspicious Node,224,ROOM_6_FLR_3 ZONE AIR NODE,Air,0
 Suspicious Node,226,ROOM_1_FLR_6 ZONE AIR NODE,Air,0
 Suspicious Node,228,ROOM_2_FLR_6 ZONE AIR NODE,Air,0
 Suspicious Node,230,ROOM_3_MULT9_FLR_6 ZONE AIR NODE,Air,0
 Suspicious Node,239,VAV WITH REHEAT_COOLC COND OA NODE,Air,0
 Suspicious Node,240,VAV WITH REHEAT_COOLCOA REF NODE,Air,0
 Suspicious Node,241,FLR_3_DOAS_COOLC COND OA NODE,Air,0
 Suspicious Node,242,FLR_3_DOAS_COOLCOA REF NODE,Air,0
 Suspicious Node,254,COOLSYS1 CHILLERCONDENSER OUTLET,Air,0
 Suspicious Node,308,LAUNDRY_FLR_1 EXHAUST FAN OUTLET NODE,Air,0
 Suspicious Node,309,LOBBY_FLR_1 EXHAUST FAN OUTLET NODE,Air,0
 Suspicious Node,310,BANQUET_FLR_6 EXHAUST FAN OUTLET NODE,Air,0
 Suspicious Node,311,DINING_FLR_6 EXHAUST FAN OUTLET NODE,Air,0
 Suspicious Node,312,KITCHEN_FLR_6 EXHAUST FAN OUTLET NODE,Air,0
 Suspicious Node,324,ROOM_1_FLR_3 FAN COIL RELIEF AIR OUTLET,Air,0
 Suspicious Node,325,ROOM_2_FLR_3 FAN COIL RELIEF AIR OUTLET,Air,0
 Suspicious Node,326,ROOM_3_MULT19_FLR_3 FAN COIL RELIEF AIR OUTLET,Air,0
 Suspicious Node,327,ROOM_4_MULT19_FLR_3 FAN COIL RELIEF AIR OUTLET,Air,0
 Suspicious Node,328,ROOM_5_FLR_3 FAN COIL RELIEF AIR OUTLET,Air,0
 Suspicious Node,329,ROOM_6_FLR_3 FAN COIL RELIEF AIR OUTLET,Air,0
 Suspicious Node,330,ROOM_1_FLR_6 FAN COIL RELIEF AIR OUTLET,Air,0
 Suspicious Node,331,ROOM_2_FLR_6 FAN COIL RELIEF AIR OUTLET,Air,0
 Suspicious Node,332,ROOM_3_MULT9_FLR_6 FAN COIL RELIEF AIR OUTLET,Air,0
 Suspicious Node,333,VAV WITH REHEAT HEAT RECOVERY RELIEF OUTLET,Air,0
 Suspicious Node,334,FLR_3_DOAS HEAT RECOVERY RELIEF OUTLET,Air,0
! ===============================================================
! <#Branch Lists>,<Number of Branch Lists>
 #Branch Lists,8
! <Branch List>,<Branch List Count>,<Branch List Name>,<Loop Name>,<Loop Type>,<Number of Branches>
! <Branch>,<Branch Count>,<Branch Name>,<Loop Name>,<Loop Type>,<Branch Inlet Node Name>,<Branch Outlet Node Name>
 Branch List,1,HEATSYS1 SUPPLY BRANCHES,HEATSYS1,Plant Supply,4
   Branch,1,HEATSYS1 SUPPLY INLET BRANCH,HEATSYS1,Plant Supply,HEATSYS1 SUPPLY INLET NODE,HEATSYS1 PUMP-HEATSYS1 BOILERNODEVIACONNECTOR
   Branch,2,HEATSYS1 SUPPLY EQUIPMENT BRANCH,HEATSYS1,Plant Supply,HEATSYS1 PUMP-HEATSYS1 BOILERNODE,HEATSYS1 SUPPLY EQUIPMENT OUTLET NODE
   Branch,3,HEATSYS1 SUPPLY EQUIPMENT BYPASS BRANCH,HEATSYS1,Plant Supply,HEATSYS1 SUPPLY EQUIP BYPASS INLET NODE,HEATSYS1 SUPPLY EQUIP BYPASS OUTLET NODE
   Branch,4,HEATSYS1 SUPPLY OUTLET BRANCH,HEATSYS1,Plant Supply,HEATSYS1 SUPPLY MIXER-HEATSYS1 SUPPLY OUTLET PIPE,HEATSYS1 SUPPLY OUTLET NODE
 Branch List,2,HEATSYS1 DEMAND BRANCHES,HEATSYS1,Plant Demand,27
   Branch,1,HEATSYS1 DEMAND INLET BRANCH,HEATSYS1,Plant Demand,HEATSYS1 DEMAND INLET NODE,HEATSYS1 DEMAND INLET PIPE-HEATSYS1 DEMAND MIXER
   Branch,2,HEATSYS1 ROOM_1_FLR_3 DEMAND LOAD BRANCH,HEATSYS1,Plant Demand,ROOM_1_FLR_3 FAN COIL HCOIL WATER INLET,ROOM_1_FLR_3 FAN COIL HCOIL WATER OUTLET
   Branch,3,HEATSYS1 ROOM_2_FLR_3 DEMAND LOAD BRANCH,HEATSYS1,Plant Demand,ROOM_2_FLR_3 FAN COIL HCOIL WATER INLET,ROOM_2_FLR_3 FAN COIL HCOIL WATER OUTLET
   Branch,4,HEATSYS1 ROOM_3_MULT19_FLR_3 DEMAND LOAD BRANCH,HEATSYS1,Plant Demand,ROOM_3_MULT19_FLR_3 FAN COIL HCOIL WATER INLET,ROOM_3_MULT19_FLR_3 FAN COIL HCOIL WATER OUTLET
   Branch,5,HEATSYS1 ROOM_4_MULT19_FLR_3 DEMAND LOAD BRANCH,HEATSYS1,Plant Demand,ROOM_4_MULT19_FLR_3 FAN COIL HCOIL WATER INLET,ROOM_4_MULT19_FLR_3 FAN COIL HCOIL WATER OUTLET
   Branch,6,HEATSYS1 ROOM_5_FLR_3 DEMAND LOAD BRANCH,HEATSYS1,Plant Demand,ROOM_5_FLR_3 FAN COIL HCOIL WATER INLET,ROOM_5_FLR_3 FAN COIL HCOIL WATER OUTLET
   Branch,7,HEATSYS1 ROOM_6_FLR_3 DEMAND LOAD BRANCH,HEATSYS1,Plant Demand,ROOM_6_FLR_3 FAN COIL HCOIL WATER INLET,ROOM_6_FLR_3 FAN COIL HCOIL WATER OUTLET
   Branch,8,HEATSYS1 ROOM_1_FLR_6 DEMAND LOAD BRANCH,HEATSYS1,Plant Demand,ROOM_1_FLR_6 FAN COIL HCOIL WATER INLET,ROOM_1_FLR_6 FAN COIL HCOIL WATER OUTLET
   Branch,9,HEATSYS1 ROOM_2_FLR_6 DEMAND LOAD BRANCH,HEATSYS1,Plant Demand,ROOM_2_FLR_6 FAN COIL HCOIL WATER INLET,ROOM_2_FLR_6 FAN COIL HCOIL WATER OUTLET
   Branch,10,HEATSYS1 ROOM_3_MULT9_FLR_6 DEMAND LOAD BRANCH,HEATSYS1,Plant Demand,ROOM_3_MULT9_FLR_6 FAN COIL HCOIL WATER INLET,ROOM_3_MULT9_FLR_6 FAN COIL HCOIL WATER OUTLET
   Branch,11,HEATSYS1 BASEMENT DEMAND LOAD BRANCH,HEATSYS1,Plant Demand,BASEMENT HCOIL WATER INLET,BASEMENT HCOIL WATER OUTLET
   Branch,12,HEATSYS1 RETAIL_1_FLR_1 DEMAND LOAD BRANCH,HEATSYS1,Plant Demand,RETAIL_1_FLR_1 HCOIL WATER INLET,RETAIL_1_FLR_1 HCOIL WATER OUTLET
   Branch,13,HEATSYS1 RETAIL_2_FLR_1 DEMAND LOAD BRANCH,HEATSYS1,Plant Demand,RETAIL_2_FLR_1 HCOIL WATER INLET,RETAIL_2_FLR_1 HCOIL WATER OUTLET
   Branch,14,HEATSYS1 MECH_FLR_1 DEMAND LOAD BRANCH,HEATSYS1,Plant Demand,MECH_FLR_1 HCOIL WATER INLET,MECH_FLR_1 HCOIL WATER OUTLET
   Branch,15,HEATSYS1 STORAGE_FLR_1 DEMAND LOAD BRANCH,HEATSYS1,Plant Demand,STORAGE_FLR_1 HCOIL WATER INLET,STORAGE_FLR_1 HCOIL WATER OUTLET
   Branch,16,HEATSYS1 LAUNDRY_FLR_1 DEMAND LOAD BRANCH,HEATSYS1,Plant Demand,LAUNDRY_FLR_1 HCOIL WATER INLET,LAUNDRY_FLR_1 HCOIL WATER OUTLET
   Branch,17,HEATSYS1 CAFE_FLR_1 DEMAND LOAD BRANCH,HEATSYS1,Plant Demand,CAFE_FLR_1 HCOIL WATER INLET,CAFE_FLR_1 HCOIL WATER OUTLET
   Branch,18,HEATSYS1 LOBBY_FLR_1 DEMAND LOAD BRANCH,HEATSYS1,Plant Demand,LOBBY_FLR_1 HCOIL WATER INLET,LOBBY_FLR_1 HCOIL WATER OUTLET
   Branch,19,HEATSYS1 CORRIDOR_FLR_3 DEMAND LOAD BRANCH,HEATSYS1,Plant Demand,CORRIDOR_FLR_3 HCOIL WATER INLET,CORRIDOR_FLR_3 HCOIL WATER OUTLET
   Branch,20,HEATSYS1 CORRIDOR_FLR_6 DEMAND LOAD BRANCH,HEATSYS1,Plant Demand,CORRIDOR_FLR_6 HCOIL WATER INLET,CORRIDOR_FLR_6 HCOIL WATER OUTLET
   Branch,21,HEATSYS1 BANQUET_FLR_6 DEMAND LOAD BRANCH,HEATSYS1,Plant Demand,BANQUET_FLR_6 HCOIL WATER INLET,BANQUET_FLR_6 HCOIL WATER OUTLET
   Branch,22,HEATSYS1 DINING_FLR_6 DEMAND LOAD BRANCH,HEATSYS1,Plant Demand,DINING_FLR_6 HCOIL WATER INLET,DINING_FLR_6 HCOIL WATER OUTLET
   Branch,23,HEATSYS1 KITCHEN_FLR_6 DEMAND LOAD BRANCH,HEATSYS1,Plant Demand,KITCHEN_FLR_6 HCOIL WATER INLET,KITCHEN_FLR_6 HCOIL WATER OUTLET
   Branch,24,HEATSYS1 VAV WITH REHEAT DEMAND LOAD BRANCH,HEATSYS1,Plant Demand,VAV WITH REHEAT HCOIL WATER INLET,VAV WITH REHEAT HCOIL WATER OUTLET
   Branch,25,HEATSYS1 FLR_3_DOAS DEMAND LOAD BRANCH,HEATSYS1,Plant Demand,FLR_3_DOAS HCOIL WATER INLET,FLR_3_DOAS HCOIL WATER OUTLET
   Branch,26,HEATSYS1 DEMAND BYPASS BRANCH,HEATSYS1,Plant Demand,HEATSYS1 DEMAND BYPASS PIPE INLET NODE,HEATSYS1 DEMAND BYPASS PIPE OUTLET NODE
   Branch,27,HEATSYS1 DEMAND OUTLET BRANCH,HEATSYS1,Plant Demand,HEATSYS1 DEMAND MIXER-HEATSYS1 DEMAND OUTLET PIPE,HEATSYS1 DEMAND OUTLET NODE
 Branch List,3,COOLSYS1 SUPPLY BRANCHES,COOLSYS1,Plant Supply,4
   Branch,1,COOLSYS1 SUPPLY INLET BRANCH,COOLSYS1,Plant Supply,COOLSYS1 SUPPLY INLET NODE,COOLSYS1 PUMP-COOLSYS1 CHILLERNODEVIACONNECTOR
   Branch,2,COOLSYS1 SUPPLY EQUIPMENT BRANCH 1,COOLSYS1,Plant Supply,COOLSYS1 PUMP-COOLSYS1 CHILLER1NODE,COOLSYS1 SUPPLY EQUIPMENT OUTLET NODE 1
   Branch,3,COOLSYS1 SUPPLY EQUIPMENT BYPASS BRANCH,COOLSYS1,Plant Supply,COOLSYS1 SUPPLY EQUIP BYPASS INLET NODE,COOLSYS1 SUPPLY EQUIP BYPASS OUTLET NODE
   Branch,4,COOLSYS1 SUPPLY OUTLET BRANCH,COOLSYS1,Plant Supply,COOLSYS1 SUPPLY MIXER-COOLSYS1 SUPPLY OUTLET PIPE,COOLSYS1 SUPPLY OUTLET NODE
 Branch List,4,COOLSYS1 DEMAND BRANCHES,COOLSYS1,Plant Demand,13
   Branch,1,COOLSYS1 DEMAND INLET BRANCH,COOLSYS1,Plant Demand,COOLSYS1 DEMAND INLET NODE,COOLSYS1 PUMP SECONDARY-COOLSYS1 DEMAND MIXER
   Branch,2,COOLSYS1 ROOM_1_FLR_3 DEMAND LOAD BRANCH,COOLSYS1,Plant Demand,ROOM_1_FLR_3 FAN COIL CCOIL WATER INLET,ROOM_1_FLR_3 FAN COIL CCOIL WATER OUTLET
   Branch,3,COOLSYS1 ROOM_2_FLR_3 DEMAND LOAD BRANCH,COOLSYS1,Plant Demand,ROOM_2_FLR_3 FAN COIL CCOIL WATER INLET,ROOM_2_FLR_3 FAN COIL CCOIL WATER OUTLET
   Branch,4,COOLSYS1 ROOM_3_MULT19_FLR_3 DEMAND LOAD BRANCH,COOLSYS1,Plant Demand,ROOM_3_MULT19_FLR_3 FAN COIL CCOIL WATER INLET,ROOM_3_MULT19_FLR_3 FAN COIL CCOIL WATER OUTLET
   Branch,5,COOLSYS1 ROOM_4_MULT19_FLR_3 DEMAND LOAD BRANCH,COOLSYS1,Plant Demand,ROOM_4_MULT19_FLR_3 FAN COIL CCOIL WATER INLET,ROOM_4_MULT19_FLR_3 FAN COIL CCOIL WATER OUTLET
   Branch,6,COOLSYS1 ROOM_5_FLR_3 DEMAND LOAD BRANCH,COOLSYS1,Plant Demand,ROOM_5_FLR_3 FAN COIL CCOIL WATER INLET,ROOM_5_FLR_3 FAN COIL CCOIL WATER OUTLET
   Branch,7,COOLSYS1 ROOM_6_FLR_3 DEMAND LOAD BRANCH,COOLSYS1,Plant Demand,ROOM_6_FLR_3 FAN COIL CCOIL WATER INLET,ROOM_6_FLR_3 FAN COIL CCOIL WATER OUTLET
   Branch,8,COOLSYS1 ROOM_1_FLR_6 DEMAND LOAD BRANCH,COOLSYS1,Plant Demand,ROOM_1_FLR_6 FAN COIL CCOIL WATER INLET,ROOM_1_FLR_6 FAN COIL CCOIL WATER OUTLET
   Branch,9,COOLSYS1 ROOM_2_FLR_6 DEMAND LOAD BRANCH,COOLSYS1,Plant Demand,ROOM_2_FLR_6 FAN COIL CCOIL WATER INLET,ROOM_2_FLR_6 FAN COIL CCOIL WATER OUTLET
   Branch,10,COOLSYS1 ROOM_3_MULT9_FLR_6 DEMAND LOAD BRANCH,COOLSYS1,Plant Demand,ROOM_3_MULT9_FLR_6 FAN COIL CCOIL WATER INLET,ROOM_3_MULT9_FLR_6 FAN COIL CCOIL WATER OUTLET
   Branch,11,COOLSYS1 VAV WITH REHEAT DEMAND LOAD BRANCH,COOLSYS1,Plant Demand,VAV WITH REHEAT CCOIL WATER INLET,VAV WITH REHEAT CCOIL WATER OUTLET
   Branch,12,COOLSYS1 FLR_3_DOAS DEMAND LOAD BRANCH,COOLSYS1,Plant Demand,FLR_3_DOAS CCOIL WATER INLET,FLR_3_DOAS CCOIL WATER OUTLET
   Branch,13,COOLSYS1 DEMAND OUTLET BRANCH,COOLSYS1,Plant Demand,COOLSYS1 DEMAND MIXER-COOLSYS1 DEMAND OUTLET PIPE,COOLSYS1 DEMAND OUTLET NODE
 Branch List,5,VAV WITH REHEAT AIR LOOP BRANCHES,VAV WITH REHEAT,Air,1
   Branch,1,VAV WITH REHEAT AIR LOOP MAIN BRANCH,VAV WITH REHEAT,Air,VAV WITH REHEAT SUPPLY EQUIPMENT INLET NODE,VAV WITH REHEAT SUPPLY EQUIPMENT OUTLET NODE
 Branch List,6,FLR_3_DOAS AIR LOOP BRANCHES,FLR_3_DOAS,Air,1
   Branch,1,FLR_3_DOAS AIR LOOP MAIN BRANCH,FLR_3_DOAS,Air,FLR_3_DOAS SUPPLY EQUIPMENT INLET NODE,FLR_3_DOAS SUPPLY EQUIPMENT OUTLET NODE
 Branch List,7,SWHSYS1 SUPPLY BRANCHES,SWHSYS1,Plant Supply,4
   Branch,1,SWHSYS1 SUPPLY INLET BRANCH,SWHSYS1,Plant Supply,SWHSYS1 SUPPLY INLET NODE,SWHSYS1 PUMP-WATER HEATERNODEVIACONNECTOR
   Branch,2,SWHSYS1 SUPPLY EQUIPMENT BRANCH,SWHSYS1,Plant Supply,SWHSYS1 PUMP-WATER HEATERNODE,SWHSYS1 SUPPLY EQUIPMENT OUTLET NODE
   Branch,3,SWHSYS1 SUPPLY EQUIPMENT BYPASS BRANCH,SWHSYS1,Plant Supply,SWHSYS1 SUPPLY EQUIP BYPASS INLET NODE,SWHSYS1 SUPPLY EQUIP BYPASS OUTLET NODE
   Branch,4,SWHSYS1 SUPPLY OUTLET BRANCH,SWHSYS1,Plant Supply,SWHSYS1 SUPPLY MIXER-SWHSYS1 SUPPLY OUTLET PIPE,SWHSYS1 SUPPLY OUTLET NODE
 Branch List,8,SWHSYS1 DEMAND BRANCHES,SWHSYS1,Plant Demand,13
   Branch,1,SWHSYS1 DEMAND INLET BRANCH,SWHSYS1,Plant Demand,SWHSYS1 DEMAND INLET NODE,SWHSYS1 DEMAND INLET PIPE-SWHSYS1 DEMAND MIXER
   Branch,2,SWH DEMAND LOAD BRANCH ROOM_1_FLR_3 WATER EQUIPMENT,SWHSYS1,Plant Demand,ROOM_1_FLR_3 WATER EQUIPMENT WATER INLET NODE,ROOM_1_FLR_3 WATER EQUIPMENT WATER OUTLET NODE
   Branch,3,SWH DEMAND LOAD BRANCH ROOM_2_FLR_3 WATER EQUIPMENT,SWHSYS1,Plant Demand,ROOM_2_FLR_3 WATER EQUIPMENT WATER INLET NODE,ROOM_2_FLR_3 WATER EQUIPMENT WATER OUTLET NODE
   Branch,4,SWH DEMAND LOAD BRANCH ROOM_3_MULT19_FLR_3 WATER EQUIPMENT,SWHSYS1,Plant Demand,ROOM_3_MULT19_FLR_3 WATER EQUIPMENT WATER INLET NODE,ROOM_3_MULT19_FLR_3 WATER EQUIPMENT WATER OUTLET NODE
   Branch,5,SWH DEMAND LOAD BRANCH ROOM_4_MULT19_FLR_3 WATER EQUIPMENT,SWHSYS1,Plant Demand,ROOM_4_MULT19_FLR_3 WATER EQUIPMENT WATER INLET NODE,ROOM_4_MULT19_FLR_3 WATER EQUIPMENT WATER OUTLET NODE
   Branch,6,SWH DEMAND LOAD BRANCH ROOM_5_FLR_3 WATER EQUIPMENT,SWHSYS1,Plant Demand,ROOM_5_FLR_3 WATER EQUIPMENT WATER INLET NODE,ROOM_5_FLR_3 WATER EQUIPMENT WATER OUTLET NODE
   Branch,7,SWH DEMAND LOAD BRANCH ROOM_6_FLR_3 WATER EQUIPMENT,SWHSYS1,Plant Demand,ROOM_6_FLR_3 WATER EQUIPMENT WATER INLET NODE,ROOM_6_FLR_3 WATER EQUIPMENT WATER OUTLET NODE
   Branch,8,SWH DEMAND LOAD BRANCH ROOM_1_FLR_6 WATER EQUIPMENT,SWHSYS1,Plant Demand,ROOM_1_FLR_6 WATER EQUIPMENT WATER INLET NODE,ROOM_1_FLR_6 WATER EQUIPMENT WATER OUTLET NODE
   Branch,9,SWH DEMAND LOAD BRANCH ROOM_2_FLR_6 WATER EQUIPMENT,SWHSYS1,Plant Demand,ROOM_2_FLR_6 WATER EQUIPMENT WATER INLET NODE,ROOM_2_FLR_6 WATER EQUIPMENT WATER OUTLET NODE
   Branch,10,SWH DEMAND LOAD BRANCH ROOM_3_MULT9_FLR_6 WATER EQUIPMENT,SWHSYS1,Plant Demand,ROOM_3_MULT9_FLR_6 WATER EQUIPMENT WATER INLET NODE,ROOM_3_MULT9_FLR_6 WATER EQUIPMENT WATER OUTLET NODE
   Branch,11,SWH DEMAND LOAD BRANCH KITCHEN_FLR_6 WATER EQUIPMENT,SWHSYS1,Plant Demand,KITCHEN_FLR_6 WATER EQUIPMENT WATER INLET NODE,KITCHEN_FLR_6 WATER EQUIPMENT WATER OUTLET NODE
   Branch,12,SWHSYS1 DEMAND BYPASS BRANCH,SWHSYS1,Plant Demand,SWHSYS1 DEMAND BYPASS PIPE INLET NODE,SWHSYS1 DEMAND BYPASS PIPE OUTLET NODE
   Branch,13,SWHSYS1 DEMAND OUTLET BRANCH,SWHSYS1,Plant Demand,SWHSYS1 DEMAND MIXER-SWHSYS1 DEMAND OUTLET PIPE,SWHSYS1 DEMAND OUTLET NODE
! ===============================================================
! <#Supply Air Paths>,<Number of Supply Air Paths>
 #Supply Air Paths,2
! <Supply Air Path>,<Supply Air Path Count>,<Supply Air Path Name>,<AirLoopHVAC Name>
! <#Components on Supply Air Path>,<Number of Components>
! <Supply Air Path Component>,<Component Count>,<Component Type>,<Component Name>,<AirLoopHVAC Name>
! <#Outlet Nodes on Supply Air Path Component>,<Number of Nodes>
! <Supply Air Path Component Nodes>,<Node Count>,<Component Type>,<Component Name>,<Inlet Node Name>,<Outlet Node Name>,<AirLoopHVAC Name>
 Supply Air Path,1,VAV WITH REHEAT,VAV WITH REHEAT
   #Components on Supply Air Path,1
   Supply Air Path Component,1,AIRLOOPHVAC:ZONESPLITTER,VAV WITH REHEAT SUPPLY AIR SPLITTER,VAV WITH REHEAT
     #Outlet Nodes on Supply Air Path Component,13
     Supply Air Path Component Nodes,1,AIRLOOPHVAC:ZONESPLITTER,VAV WITH REHEAT SUPPLY AIR SPLITTER,VAV WITH REHEAT ZONE EQUIPMENT INLET NODE,BASEMENT VAV BOX INLET NODE,VAV WITH REHEAT
     Supply Air Path Component Nodes,2,AIRLOOPHVAC:ZONESPLITTER,VAV WITH REHEAT SUPPLY AIR SPLITTER,VAV WITH REHEAT ZONE EQUIPMENT INLET NODE,RETAIL_1_FLR_1 VAV BOX INLET NODE,VAV WITH REHEAT
     Supply Air Path Component Nodes,3,AIRLOOPHVAC:ZONESPLITTER,VAV WITH REHEAT SUPPLY AIR SPLITTER,VAV WITH REHEAT ZONE EQUIPMENT INLET NODE,RETAIL_2_FLR_1 VAV BOX INLET NODE,VAV WITH REHEAT
     Supply Air Path Component Nodes,4,AIRLOOPHVAC:ZONESPLITTER,VAV WITH REHEAT SUPPLY AIR SPLITTER,VAV WITH REHEAT ZONE EQUIPMENT INLET NODE,MECH_FLR_1 VAV BOX INLET NODE,VAV WITH REHEAT
     Supply Air Path Component Nodes,5,AIRLOOPHVAC:ZONESPLITTER,VAV WITH REHEAT SUPPLY AIR SPLITTER,VAV WITH REHEAT ZONE EQUIPMENT INLET NODE,STORAGE_FLR_1 VAV BOX INLET NODE,VAV WITH REHEAT
     Supply Air Path Component Nodes,6,AIRLOOPHVAC:ZONESPLITTER,VAV WITH REHEAT SUPPLY AIR SPLITTER,VAV WITH REHEAT ZONE EQUIPMENT INLET NODE,LAUNDRY_FLR_1 VAV BOX INLET NODE,VAV WITH REHEAT
     Supply Air Path Component Nodes,7,AIRLOOPHVAC:ZONESPLITTER,VAV WITH REHEAT SUPPLY AIR SPLITTER,VAV WITH REHEAT ZONE EQUIPMENT INLET NODE,CAFE_FLR_1 VAV BOX INLET NODE,VAV WITH REHEAT
     Supply Air Path Component Nodes,8,AIRLOOPHVAC:ZONESPLITTER,VAV WITH REHEAT SUPPLY AIR SPLITTER,VAV WITH REHEAT ZONE EQUIPMENT INLET NODE,LOBBY_FLR_1 VAV BOX INLET NODE,VAV WITH REHEAT
     Supply Air Path Component Nodes,9,AIRLOOPHVAC:ZONESPLITTER,VAV WITH REHEAT SUPPLY AIR SPLITTER,VAV WITH REHEAT ZONE EQUIPMENT INLET NODE,CORRIDOR_FLR_3 VAV BOX INLET NODE,VAV WITH REHEAT
     Supply Air Path Component Nodes,10,AIRLOOPHVAC:ZONESPLITTER,VAV WITH REHEAT SUPPLY AIR SPLITTER,VAV WITH REHEAT ZONE EQUIPMENT INLET NODE,CORRIDOR_FLR_6 VAV BOX INLET NODE,VAV WITH REHEAT
     Supply Air Path Component Nodes,11,AIRLOOPHVAC:ZONESPLITTER,VAV WITH REHEAT SUPPLY AIR SPLITTER,VAV WITH REHEAT ZONE EQUIPMENT INLET NODE,BANQUET_FLR_6 VAV BOX INLET NODE,VAV WITH REHEAT
     Supply Air Path Component Nodes,12,AIRLOOPHVAC:ZONESPLITTER,VAV WITH REHEAT SUPPLY AIR SPLITTER,VAV WITH REHEAT ZONE EQUIPMENT INLET NODE,DINING_FLR_6 VAV BOX INLET NODE,VAV WITH REHEAT
     Supply Air Path Component Nodes,13,AIRLOOPHVAC:ZONESPLITTER,VAV WITH REHEAT SUPPLY AIR SPLITTER,VAV WITH REHEAT ZONE EQUIPMENT INLET NODE,KITCHEN_FLR_6 VAV BOX INLET NODE,VAV WITH REHEAT
! <#Nodes on Supply Air Path>,<Number of Nodes>
! <Supply Air Path Node>,<Node Type>,<Node Count>,<Node Name>,<AirLoopHVAC Name>
#Nodes on Supply Air Path,14
   Supply Air Path Node,Inlet Node,1,VAV WITH REHEAT ZONE EQUIPMENT INLET NODE,VAV WITH REHEAT
   Supply Air Path Node,Outlet Node,2,BASEMENT VAV BOX INLET NODE,VAV WITH REHEAT
   Supply Air Path Node,Outlet Node,3,RETAIL_1_FLR_1 VAV BOX INLET NODE,VAV WITH REHEAT
   Supply Air Path Node,Outlet Node,4,RETAIL_2_FLR_1 VAV BOX INLET NODE,VAV WITH REHEAT
   Supply Air Path Node,Outlet Node,5,MECH_FLR_1 VAV BOX INLET NODE,VAV WITH REHEAT
   Supply Air Path Node,Outlet Node,6,STORAGE_FLR_1 VAV BOX INLET NODE,VAV WITH REHEAT
   Supply Air Path Node,Outlet Node,7,LAUNDRY_FLR_1 VAV BOX INLET NODE,VAV WITH REHEAT
   Supply Air Path Node,Outlet Node,8,CAFE_FLR_1 VAV BOX INLET NODE,VAV WITH REHEAT
   Supply Air Path Node,Outlet Node,9,LOBBY_FLR_1 VAV BOX INLET NODE,VAV WITH REHEAT
   Supply Air Path Node,Outlet Node,10,CORRIDOR_FLR_3 VAV BOX INLET NODE,VAV WITH REHEAT
   Supply Air Path Node,Outlet Node,11,CORRIDOR_FLR_6 VAV BOX INLET NODE,VAV WITH REHEAT
   Supply Air Path Node,Outlet Node,12,BANQUET_FLR_6 VAV BOX INLET NODE,VAV WITH REHEAT
   Supply Air Path Node,Outlet Node,13,DINING_FLR_6 VAV BOX INLET NODE,VAV WITH REHEAT
   Supply Air Path Node,Outlet Node,14,KITCHEN_FLR_6 VAV BOX INLET NODE,VAV WITH REHEAT
 Supply Air Path,2,FLR_3_DOAS,FLR_3_DOAS
   #Components on Supply Air Path,1
   Supply Air Path Component,1,AIRLOOPHVAC:ZONESPLITTER,FLR_3_DOAS SUPPLY AIR SPLITTER,FLR_3_DOAS
     #Outlet Nodes on Supply Air Path Component,9
     Supply Air Path Component Nodes,1,AIRLOOPHVAC:ZONESPLITTER,FLR_3_DOAS SUPPLY AIR SPLITTER,FLR_3_DOAS ZONE EQUIPMENT INLET NODE,ROOM_1_FLR_3 DOAS SUPPLY NODE,FLR_3_DOAS
     Supply Air Path Component Nodes,2,AIRLOOPHVAC:ZONESPLITTER,FLR_3_DOAS SUPPLY AIR SPLITTER,FLR_3_DOAS ZONE EQUIPMENT INLET NODE,ROOM_2_FLR_3 DOAS SUPPLY NODE,FLR_3_DOAS
     Supply Air Path Component Nodes,3,AIRLOOPHVAC:ZONESPLITTER,FLR_3_DOAS SUPPLY AIR SPLITTER,FLR_3_DOAS ZONE EQUIPMENT INLET NODE,ROOM_3_MULT19_FLR_3 DOAS SUPPLY NODE,FLR_3_DOAS
     Supply Air Path Component Nodes,4,AIRLOOPHVAC:ZONESPLITTER,FLR_3_DOAS SUPPLY AIR SPLITTER,FLR_3_DOAS ZONE EQUIPMENT INLET NODE,ROOM_4_MULT19_FLR_3 DOAS SUPPLY NODE,FLR_3_DOAS
     Supply Air Path Component Nodes,5,AIRLOOPHVAC:ZONESPLITTER,FLR_3_DOAS SUPPLY AIR SPLITTER,FLR_3_DOAS ZONE EQUIPMENT INLET NODE,ROOM_5_FLR_3 DOAS SUPPLY NODE,FLR_3_DOAS
     Supply Air Path Component Nodes,6,AIRLOOPHVAC:ZONESPLITTER,FLR_3_DOAS SUPPLY AIR SPLITTER,FLR_3_DOAS ZONE EQUIPMENT INLET NODE,ROOM_6_FLR_3 DOAS SUPPLY NODE,FLR_3_DOAS
     Supply Air Path Component Nodes,7,AIRLOOPHVAC:ZONESPLITTER,FLR_3_DOAS SUPPLY AIR SPLITTER,FLR_3_DOAS ZONE EQUIPMENT INLET NODE,ROOM_1_FLR_6 DOAS SUPPLY NODE,FLR_3_DOAS
     Supply Air Path Component Nodes,8,AIRLOOPHVAC:ZONESPLITTER,FLR_3_DOAS SUPPLY AIR SPLITTER,FLR_3_DOAS ZONE EQUIPMENT INLET NODE,ROOM_2_FLR_6 DOAS SUPPLY NODE,FLR_3_DOAS
     Supply Air Path Component Nodes,9,AIRLOOPHVAC:ZONESPLITTER,FLR_3_DOAS SUPPLY AIR SPLITTER,FLR_3_DOAS ZONE EQUIPMENT INLET NODE,ROOM_3_MULT9_FLR_6 DOAS SUPPLY NODE,FLR_3_DOAS
! <#Nodes on Supply Air Path>,<Number of Nodes>
! <Supply Air Path Node>,<Node Type>,<Node Count>,<Node Name>,<AirLoopHVAC Name>
#Nodes on Supply Air Path,10
   Supply Air Path Node,Inlet Node,1,FLR_3_DOAS ZONE EQUIPMENT INLET NODE,FLR_3_DOAS
   Supply Air Path Node,Outlet Node,2,ROOM_1_FLR_3 DOAS SUPPLY NODE,FLR_3_DOAS
   Supply Air Path Node,Outlet Node,3,ROOM_2_FLR_3 DOAS SUPPLY NODE,FLR_3_DOAS
   Supply Air Path Node,Outlet Node,4,ROOM_3_MULT19_FLR_3 DOAS SUPPLY NODE,FLR_3_DOAS
   Supply Air Path Node,Outlet Node,5,ROOM_4_MULT19_FLR_3 DOAS SUPPLY NODE,FLR_3_DOAS
   Supply Air Path Node,Outlet Node,6,ROOM_5_FLR_3 DOAS SUPPLY NODE,FLR_3_DOAS
   Supply Air Path Node,Outlet Node,7,ROOM_6_FLR_3 DOAS SUPPLY NODE,FLR_3_DOAS
   Supply Air Path Node,Outlet Node,8,ROOM_1_FLR_6 DOAS SUPPLY NODE,FLR_3_DOAS
   Supply Air Path Node,Outlet Node,9,ROOM_2_FLR_6 DOAS SUPPLY NODE,FLR_3_DOAS
   Supply Air Path Node,Outlet Node,10,ROOM_3_MULT9_FLR_6 DOAS SUPPLY NODE,FLR_3_DOAS
! ===============================================================
! <#Return Air Paths>,<Number of Return Air Paths>
 #Return Air Paths,2
! <Return Air Path>,<Return Air Path Count>,<Return Air Path Name>,<AirLoopHVAC Name>
! <#Components on Return Air Path>,<Number of Components>
! <Return Air Path Component>,<Component Count>,<Component Type>,<Component Name>,<AirLoopHVAC Name>
! <#Inlet Nodes on Return Air Path Component>,<Number of Nodes>
! <Return Air Path Component Nodes>,<Node Count>,<Component Type>,<Component Name>,<Inlet Node Name>,<Outlet Node Name>,<AirLoopHVAC Name>
 Return Air Path,1,VAV WITH REHEAT RETURN AIR PATH,VAV WITH REHEAT
   #Components on Return Air Path,1
   Return Air Path Component,1,AIRLOOPHVAC:ZONEMIXER,VAV WITH REHEAT RETURN AIR MIXER,VAV WITH REHEAT
     #Inlet Nodes on Return Air Path Component,13
     Return Air Path Component Nodes,1,AIRLOOPHVAC:ZONEMIXER,VAV WITH REHEAT RETURN AIR MIXER,BASEMENT RETURN AIR NODE,VAV WITH REHEAT ZONE EQUIPMENT OUTLET NODE,VAV WITH REHEAT
     Return Air Path Component Nodes,2,AIRLOOPHVAC:ZONEMIXER,VAV WITH REHEAT RETURN AIR MIXER,RETAIL_1_FLR_1 RETURN AIR NODE,VAV WITH REHEAT ZONE EQUIPMENT OUTLET NODE,VAV WITH REHEAT
     Return Air Path Component Nodes,3,AIRLOOPHVAC:ZONEMIXER,VAV WITH REHEAT RETURN AIR MIXER,RETAIL_2_FLR_1 RETURN AIR NODE,VAV WITH REHEAT ZONE EQUIPMENT OUTLET NODE,VAV WITH REHEAT
     Return Air Path Component Nodes,4,AIRLOOPHVAC:ZONEMIXER,VAV WITH REHEAT RETURN AIR MIXER,MECH_FLR_1 RETURN AIR NODE,VAV WITH REHEAT ZONE EQUIPMENT OUTLET NODE,VAV WITH REHEAT
     Return Air Path Component Nodes,5,AIRLOOPHVAC:ZONEMIXER,VAV WITH REHEAT RETURN AIR MIXER,STORAGE_FLR_1 RETURN AIR NODE,VAV WITH REHEAT ZONE EQUIPMENT OUTLET NODE,VAV WITH REHEAT
     Return Air Path Component Nodes,6,AIRLOOPHVAC:ZONEMIXER,VAV WITH REHEAT RETURN AIR MIXER,LAUNDRY_FLR_1 RETURN AIR NODE,VAV WITH REHEAT ZONE EQUIPMENT OUTLET NODE,VAV WITH REHEAT
     Return Air Path Component Nodes,7,AIRLOOPHVAC:ZONEMIXER,VAV WITH REHEAT RETURN AIR MIXER,CAFE_FLR_1 RETURN AIR NODE,VAV WITH REHEAT ZONE EQUIPMENT OUTLET NODE,VAV WITH REHEAT
     Return Air Path Component Nodes,8,AIRLOOPHVAC:ZONEMIXER,VAV WITH REHEAT RETURN AIR MIXER,LOBBY_FLR_1 RETURN AIR NODE,VAV WITH REHEAT ZONE EQUIPMENT OUTLET NODE,VAV WITH REHEAT
     Return Air Path Component Nodes,9,AIRLOOPHVAC:ZONEMIXER,VAV WITH REHEAT RETURN AIR MIXER,CORRIDOR_FLR_3 RETURN AIR NODE,VAV WITH REHEAT ZONE EQUIPMENT OUTLET NODE,VAV WITH REHEAT
     Return Air Path Component Nodes,10,AIRLOOPHVAC:ZONEMIXER,VAV WITH REHEAT RETURN AIR MIXER,CORRIDOR_FLR_6 RETURN AIR NODE,VAV WITH REHEAT ZONE EQUIPMENT OUTLET NODE,VAV WITH REHEAT
     Return Air Path Component Nodes,11,AIRLOOPHVAC:ZONEMIXER,VAV WITH REHEAT RETURN AIR MIXER,BANQUET_FLR_6 RETURN AIR NODE,VAV WITH REHEAT ZONE EQUIPMENT OUTLET NODE,VAV WITH REHEAT
     Return Air Path Component Nodes,12,AIRLOOPHVAC:ZONEMIXER,VAV WITH REHEAT RETURN AIR MIXER,DINING_FLR_6 RETURN AIR NODE,VAV WITH REHEAT ZONE EQUIPMENT OUTLET NODE,VAV WITH REHEAT
     Return Air Path Component Nodes,13,AIRLOOPHVAC:ZONEMIXER,VAV WITH REHEAT RETURN AIR MIXER,KITCHEN_FLR_6 RETURN AIR NODE,VAV WITH REHEAT ZONE EQUIPMENT OUTLET NODE,VAV WITH REHEAT
! <#Nodes on Return Air Path>,<Number of Nodes>
! <Return Air Path Node>,<Node Type>,<Node Count>,<Node Name>,<AirLoopHVAC Name>
   #Nodes on Return Air Path,14
   Return Air Path Node,Outlet Node,1,VAV WITH REHEAT ZONE EQUIPMENT OUTLET NODE,VAV WITH REHEAT
   Return Air Path Node,Inlet Node,2,BASEMENT RETURN AIR NODE,VAV WITH REHEAT
   Return Air Path Node,Inlet Node,3,RETAIL_1_FLR_1 RETURN AIR NODE,VAV WITH REHEAT
   Return Air Path Node,Inlet Node,4,RETAIL_2_FLR_1 RETURN AIR NODE,VAV WITH REHEAT
   Return Air Path Node,Inlet Node,5,MECH_FLR_1 RETURN AIR NODE,VAV WITH REHEAT
   Return Air Path Node,Inlet Node,6,STORAGE_FLR_1 RETURN AIR NODE,VAV WITH REHEAT
   Return Air Path Node,Inlet Node,7,LAUNDRY_FLR_1 RETURN AIR NODE,VAV WITH REHEAT
   Return Air Path Node,Inlet Node,8,CAFE_FLR_1 RETURN AIR NODE,VAV WITH REHEAT
   Return Air Path Node,Inlet Node,9,LOBBY_FLR_1 RETURN AIR NODE,VAV WITH REHEAT
   Return Air Path Node,Inlet Node,10,CORRIDOR_FLR_3 RETURN AIR NODE,VAV WITH REHEAT
   Return Air Path Node,Inlet Node,11,CORRIDOR_FLR_6 RETURN AIR NODE,VAV WITH REHEAT
   Return Air Path Node,Inlet Node,12,BANQUET_FLR_6 RETURN AIR NODE,VAV WITH REHEAT
   Return Air Path Node,Inlet Node,13,DINING_FLR_6 RETURN AIR NODE,VAV WITH REHEAT
   Return Air Path Node,Inlet Node,14,KITCHEN_FLR_6 RETURN AIR NODE,VAV WITH REHEAT
 Return Air Path,2,FLR_3_DOAS RETURN AIR PATH,FLR_3_DOAS
   #Components on Return Air Path,1
   Return Air Path Component,1,AIRLOOPHVAC:ZONEMIXER,FLR_3_DOAS RETURN AIR MIXER,FLR_3_DOAS
     #Inlet Nodes on Return Air Path Component,9
     Return Air Path Component Nodes,1,AIRLOOPHVAC:ZONEMIXER,FLR_3_DOAS RETURN AIR MIXER,ROOM_1_FLR_3 DOAS RETURN NODE,FLR_3_DOAS ZONE EQUIPMENT OUTLET NODE,FLR_3_DOAS
     Return Air Path Component Nodes,2,AIRLOOPHVAC:ZONEMIXER,FLR_3_DOAS RETURN AIR MIXER,ROOM_2_FLR_3 DOAS RETURN NODE,FLR_3_DOAS ZONE EQUIPMENT OUTLET NODE,FLR_3_DOAS
     Return Air Path Component Nodes,3,AIRLOOPHVAC:ZONEMIXER,FLR_3_DOAS RETURN AIR MIXER,ROOM_3_MULT19_FLR_3 DOAS RETURN NODE,FLR_3_DOAS ZONE EQUIPMENT OUTLET NODE,FLR_3_DOAS
     Return Air Path Component Nodes,4,AIRLOOPHVAC:ZONEMIXER,FLR_3_DOAS RETURN AIR MIXER,ROOM_4_MULT19_FLR_3 DOAS RETURN NODE,FLR_3_DOAS ZONE EQUIPMENT OUTLET NODE,FLR_3_DOAS
     Return Air Path Component Nodes,5,AIRLOOPHVAC:ZONEMIXER,FLR_3_DOAS RETURN AIR MIXER,ROOM_5_FLR_3 DOAS RETURN NODE,FLR_3_DOAS ZONE EQUIPMENT OUTLET NODE,FLR_3_DOAS
     Return Air Path Component Nodes,6,AIRLOOPHVAC:ZONEMIXER,FLR_3_DOAS RETURN AIR MIXER,ROOM_6_FLR_3 DOAS RETURN NODE,FLR_3_DOAS ZONE EQUIPMENT OUTLET NODE,FLR_3_DOAS
     Return Air Path Component Nodes,7,AIRLOOPHVAC:ZONEMIXER,FLR_3_DOAS RETURN AIR MIXER,ROOM_1_FLR_6 DOAS RETURN NODE,FLR_3_DOAS ZONE EQUIPMENT OUTLET NODE,FLR_3_DOAS
     Return Air Path Component Nodes,8,AIRLOOPHVAC:ZONEMIXER,FLR_3_DOAS RETURN AIR MIXER,ROOM_2_FLR_6 DOAS RETURN NODE,FLR_3_DOAS ZONE EQUIPMENT OUTLET NODE,FLR_3_DOAS
     Return Air Path Component Nodes,9,AIRLOOPHVAC:ZONEMIXER,FLR_3_DOAS RETURN AIR MIXER,ROOM_3_MULT9_FLR_6 DOAS RETURN NODE,FLR_3_DOAS ZONE EQUIPMENT OUTLET NODE,FLR_3_DOAS
! <#Nodes on Return Air Path>,<Number of Nodes>
! <Return Air Path Node>,<Node Type>,<Node Count>,<Node Name>,<AirLoopHVAC Name>
   #Nodes on Return Air Path,10
   Return Air Path Node,Outlet Node,1,FLR_3_DOAS ZONE EQUIPMENT OUTLET NODE,FLR_3_DOAS
   Return Air Path Node,Inlet Node,2,ROOM_1_FLR_3 DOAS RETURN NODE,FLR_3_DOAS
   Return Air Path Node,Inlet Node,3,ROOM_2_FLR_3 DOAS RETURN NODE,FLR_3_DOAS
   Return Air Path Node,Inlet Node,4,ROOM_3_MULT19_FLR_3 DOAS RETURN NODE,FLR_3_DOAS
   Return Air Path Node,Inlet Node,5,ROOM_4_MULT19_FLR_3 DOAS RETURN NODE,FLR_3_DOAS
   Return Air Path Node,Inlet Node,6,ROOM_5_FLR_3 DOAS RETURN NODE,FLR_3_DOAS
   Return Air Path Node,Inlet Node,7,ROOM_6_FLR_3 DOAS RETURN NODE,FLR_3_DOAS
   Return Air Path Node,Inlet Node,8,ROOM_1_FLR_6 DOAS RETURN NODE,FLR_3_DOAS
   Return Air Path Node,Inlet Node,9,ROOM_2_FLR_6 DOAS RETURN NODE,FLR_3_DOAS
   Return Air Path Node,Inlet Node,10,ROOM_3_MULT9_FLR_6 DOAS RETURN NODE,FLR_3_DOAS
! ===============================================================
! #Outdoor Air Nodes,<Number of Outdoor Air Nodes>
 #Outdoor Air Nodes,18
! <Outdoor Air Node>,<NodeNumber>,<Node Name>
 Outdoor Air Node,1,VAV WITH REHEAT_OAINLET NODE
 Outdoor Air Node,20,FLR_3_DOAS_OAINLET NODE
 Outdoor Air Node,236,RACK1_CONDENSERINLET
 Outdoor Air Node,237,RACK2_CONDENSERINLET
 Outdoor Air Node,238,COOLSYS1 CHILLERCONDENSER OA INLET
 Outdoor Air Node,239,VAV WITH REHEAT_COOLC COND OA NODE
 Outdoor Air Node,240,VAV WITH REHEAT_COOLCOA REF NODE
 Outdoor Air Node,241,FLR_3_DOAS_COOLC COND OA NODE
 Outdoor Air Node,242,FLR_3_DOAS_COOLCOA REF NODE
 Outdoor Air Node,243,ROOM_1_FLR_3 FAN COIL OUTSIDE AIR INLET
 Outdoor Air Node,244,ROOM_2_FLR_3 FAN COIL OUTSIDE AIR INLET
 Outdoor Air Node,245,ROOM_3_MULT19_FLR_3 FAN COIL OUTSIDE AIR INLET
 Outdoor Air Node,246,ROOM_4_MULT19_FLR_3 FAN COIL OUTSIDE AIR INLET
 Outdoor Air Node,247,ROOM_5_FLR_3 FAN COIL OUTSIDE AIR INLET
 Outdoor Air Node,248,ROOM_6_FLR_3 FAN COIL OUTSIDE AIR INLET
 Outdoor Air Node,249,ROOM_1_FLR_6 FAN COIL OUTSIDE AIR INLET
 Outdoor Air Node,250,ROOM_2_FLR_6 FAN COIL OUTSIDE AIR INLET
 Outdoor Air Node,251,ROOM_3_MULT9_FLR_6 FAN COIL OUTSIDE AIR INLET
! ===============================================================
! <#Component Sets>,<Number of Component Sets>
 #Component Sets,148
! <Component Set>,<Component Set Count>,<Parent Object Type>,<Parent Object Name>,<Component Type>,<Component Name>,<Inlet Node ID>,<Outlet Node ID>,<Description>
 Component Set,1,BRANCH,HEATSYS1 SUPPLY INLET BRANCH,PUMP:VARIABLESPEED,HEATSYS1 PUMP,HEATSYS1 SUPPLY INLET NODE,HEATSYS1 PUMP-HEATSYS1 BOILERNODEVIACONNECTOR,Water Nodes
 Component Set,2,BRANCH,HEATSYS1 SUPPLY EQUIPMENT BRANCH,BOILER:HOTWATER,HEATSYS1 BOILER,HEATSYS1 PUMP-HEATSYS1 BOILERNODE,HEATSYS1 SUPPLY EQUIPMENT OUTLET NODE,Hot Water Nodes
 Component Set,3,BRANCH,HEATSYS1 SUPPLY EQUIPMENT BYPASS BRANCH,PIPE:ADIABATIC,HEATSYS1 SUPPLY EQUIPMENT BYPASS PIPE,HEATSYS1 SUPPLY EQUIP BYPASS INLET NODE,HEATSYS1 SUPPLY EQUIP BYPASS OUTLET NODE,Pipe Nodes
 Component Set,4,BRANCH,HEATSYS1 SUPPLY OUTLET BRANCH,PIPE:ADIABATIC,HEATSYS1 SUPPLY OUTLET PIPE,HEATSYS1 SUPPLY MIXER-HEATSYS1 SUPPLY OUTLET PIPE,HEATSYS1 SUPPLY OUTLET NODE,Pipe Nodes
 Component Set,5,BRANCH,HEATSYS1 DEMAND INLET BRANCH,PIPE:ADIABATIC,HEATSYS1 DEMAND INLET PIPE,HEATSYS1 DEMAND INLET NODE,HEATSYS1 DEMAND INLET PIPE-HEATSYS1 DEMAND MIXER,Pipe Nodes
 Component Set,6,BRANCH,HEATSYS1 DEMAND BYPASS BRANCH,PIPE:ADIABATIC,HEATSYS1 DEMAND BYPASS PIPE,HEATSYS1 DEMAND BYPASS PIPE INLET NODE,HEATSYS1 DEMAND BYPASS PIPE OUTLET NODE,Pipe Nodes
 Component Set,7,BRANCH,HEATSYS1 DEMAND OUTLET BRANCH,PIPE:ADIABATIC,HEATSYS1 DEMAND OUTLET PIPE,HEATSYS1 DEMAND MIXER-HEATSYS1 DEMAND OUTLET PIPE,HEATSYS1 DEMAND OUTLET NODE,Pipe Nodes
 Component Set,8,BRANCH,COOLSYS1 SUPPLY INLET BRANCH,PUMP:CONSTANTSPEED,COOLSYS1 PUMP,COOLSYS1 SUPPLY INLET NODE,COOLSYS1 PUMP-COOLSYS1 CHILLERNODEVIACONNECTOR,Water Nodes
 Component Set,9,BRANCH,COOLSYS1 SUPPLY EQUIPMENT BRANCH 1,CHILLER:ELECTRIC:EIR,COOLSYS1 CHILLER1,COOLSYS1 PUMP-COOLSYS1 CHILLER1NODE,COOLSYS1 SUPPLY EQUIPMENT OUTLET NODE 1,Chilled Water Nodes
 Component Set,10,BRANCH,COOLSYS1 SUPPLY EQUIPMENT BYPASS BRANCH,PIPE:ADIABATIC,COOLSYS1 SUPPLY EQUIPMENT BYPASS PIPE,COOLSYS1 SUPPLY EQUIP BYPASS INLET NODE,COOLSYS1 SUPPLY EQUIP BYPASS OUTLET NODE,Pipe Nodes
 Component Set,11,BRANCH,COOLSYS1 SUPPLY OUTLET BRANCH,PIPE:ADIABATIC,COOLSYS1 SUPPLY OUTLET PIPE,COOLSYS1 SUPPLY MIXER-COOLSYS1 SUPPLY OUTLET PIPE,COOLSYS1 SUPPLY OUTLET NODE,Pipe Nodes
 Component Set,12,BRANCH,COOLSYS1 DEMAND INLET BRANCH,PUMP:VARIABLESPEED,COOLSYS1 PUMP SECONDARY,COOLSYS1 DEMAND INLET NODE,COOLSYS1 PUMP SECONDARY-COOLSYS1 DEMAND MIXER,Water Nodes
 Component Set,13,BRANCH,COOLSYS1 DEMAND OUTLET BRANCH,PIPE:ADIABATIC,COOLSYS1 DEMAND OUTLET PIPE,COOLSYS1 DEMAND MIXER-COOLSYS1 DEMAND OUTLET PIPE,COOLSYS1 DEMAND OUTLET NODE,Pipe Nodes
 Component Set,14,BRANCH,VAV WITH REHEAT AIR LOOP MAIN BRANCH,AIRLOOPHVAC:OUTDOORAIRSYSTEM,VAV WITH REHEAT_OA,VAV WITH REHEAT SUPPLY EQUIPMENT INLET NODE,VAV WITH REHEAT_OA-VAV WITH REHEAT_COOLCNODE,Air Nodes
 Component Set,15,BRANCH,VAV WITH REHEAT AIR LOOP MAIN BRANCH,COIL:COOLING:WATER,VAV WITH REHEAT COOLING COIL,VAV WITH REHEAT_OA-VAV WITH REHEAT_COOLCNODE,VAV WITH REHEAT_COOLC-VAV WITH REHEAT_HEATCNODE,Air Nodes
 Component Set,16,BRANCH,VAV WITH REHEAT AIR LOOP MAIN BRANCH,COIL:HEATING:WATER,VAV WITH REHEAT HEATING COIL,VAV WITH REHEAT_COOLC-VAV WITH REHEAT_HEATCNODE,VAV WITH REHEAT_HEATC-VAV WITH REHEAT FANNODE,Air Nodes
 Component Set,17,BRANCH,VAV WITH REHEAT AIR LOOP MAIN BRANCH,FAN:VARIABLEVOLUME,VAV WITH REHEAT FAN,VAV WITH REHEAT_HEATC-VAV WITH REHEAT FANNODE,VAV WITH REHEAT SUPPLY EQUIPMENT OUTLET NODE,Air Nodes
 Component Set,18,BRANCH,COOLSYS1 VAV WITH REHEAT DEMAND LOAD BRANCH,COIL:COOLING:WATER,VAV WITH REHEAT COOLING COIL,VAV WITH REHEAT CCOIL WATER INLET,VAV WITH REHEAT CCOIL WATER OUTLET,Water Nodes
 Component Set,19,BRANCH,HEATSYS1 VAV WITH REHEAT DEMAND LOAD BRANCH,COIL:HEATING:WATER,VAV WITH REHEAT HEATING COIL,VAV WITH REHEAT HCOIL WATER INLET,VAV WITH REHEAT HCOIL WATER OUTLET,Water Nodes
 Component Set,20,BRANCH,HEATSYS1 BASEMENT DEMAND LOAD BRANCH,COIL:HEATING:WATER,BASEMENT VAV BOX REHEAT COIL,BASEMENT HCOIL WATER INLET,BASEMENT HCOIL WATER OUTLET,Water Nodes
 Component Set,21,BRANCH,HEATSYS1 RETAIL_1_FLR_1 DEMAND LOAD BRANCH,COIL:HEATING:WATER,RETAIL_1_FLR_1 VAV BOX REHEAT COIL,RETAIL_1_FLR_1 HCOIL WATER INLET,RETAIL_1_FLR_1 HCOIL WATER OUTLET,Water Nodes
 Component Set,22,BRANCH,HEATSYS1 RETAIL_2_FLR_1 DEMAND LOAD BRANCH,COIL:HEATING:WATER,RETAIL_2_FLR_1 VAV BOX REHEAT COIL,RETAIL_2_FLR_1 HCOIL WATER INLET,RETAIL_2_FLR_1 HCOIL WATER OUTLET,Water Nodes
 Component Set,23,BRANCH,HEATSYS1 MECH_FLR_1 DEMAND LOAD BRANCH,COIL:HEATING:WATER,MECH_FLR_1 VAV BOX REHEAT COIL,MECH_FLR_1 HCOIL WATER INLET,MECH_FLR_1 HCOIL WATER OUTLET,Water Nodes
 Component Set,24,BRANCH,HEATSYS1 STORAGE_FLR_1 DEMAND LOAD BRANCH,COIL:HEATING:WATER,STORAGE_FLR_1 VAV BOX REHEAT COIL,STORAGE_FLR_1 HCOIL WATER INLET,STORAGE_FLR_1 HCOIL WATER OUTLET,Water Nodes
 Component Set,25,BRANCH,HEATSYS1 LAUNDRY_FLR_1 DEMAND LOAD BRANCH,COIL:HEATING:WATER,LAUNDRY_FLR_1 VAV BOX REHEAT COIL,LAUNDRY_FLR_1 HCOIL WATER INLET,LAUNDRY_FLR_1 HCOIL WATER OUTLET,Water Nodes
 Component Set,26,BRANCH,HEATSYS1 CAFE_FLR_1 DEMAND LOAD BRANCH,COIL:HEATING:WATER,CAFE_FLR_1 VAV BOX REHEAT COIL,CAFE_FLR_1 HCOIL WATER INLET,CAFE_FLR_1 HCOIL WATER OUTLET,Water Nodes
 Component Set,27,BRANCH,HEATSYS1 LOBBY_FLR_1 DEMAND LOAD BRANCH,COIL:HEATING:WATER,LOBBY_FLR_1 VAV BOX REHEAT COIL,LOBBY_FLR_1 HCOIL WATER INLET,LOBBY_FLR_1 HCOIL WATER OUTLET,Water Nodes
 Component Set,28,BRANCH,HEATSYS1 CORRIDOR_FLR_3 DEMAND LOAD BRANCH,COIL:HEATING:WATER,CORRIDOR_FLR_3 VAV BOX REHEAT COIL,CORRIDOR_FLR_3 HCOIL WATER INLET,CORRIDOR_FLR_3 HCOIL WATER OUTLET,Water Nodes
 Component Set,29,BRANCH,HEATSYS1 CORRIDOR_FLR_6 DEMAND LOAD BRANCH,COIL:HEATING:WATER,CORRIDOR_FLR_6 VAV BOX REHEAT COIL,CORRIDOR_FLR_6 HCOIL WATER INLET,CORRIDOR_FLR_6 HCOIL WATER OUTLET,Water Nodes
 Component Set,30,BRANCH,HEATSYS1 BANQUET_FLR_6 DEMAND LOAD BRANCH,COIL:HEATING:WATER,BANQUET_FLR_6 VAV BOX REHEAT COIL,BANQUET_FLR_6 HCOIL WATER INLET,BANQUET_FLR_6 HCOIL WATER OUTLET,Water Nodes
 Component Set,31,BRANCH,HEATSYS1 DINING_FLR_6 DEMAND LOAD BRANCH,COIL:HEATING:WATER,DINING_FLR_6 VAV BOX REHEAT COIL,DINING_FLR_6 HCOIL WATER INLET,DINING_FLR_6 HCOIL WATER OUTLET,Water Nodes
 Component Set,32,BRANCH,HEATSYS1 KITCHEN_FLR_6 DEMAND LOAD BRANCH,COIL:HEATING:WATER,KITCHEN_FLR_6 VAV BOX REHEAT COIL,KITCHEN_FLR_6 HCOIL WATER INLET,KITCHEN_FLR_6 HCOIL WATER OUTLET,Water Nodes
 Component Set,33,BRANCH,FLR_3_DOAS AIR LOOP MAIN BRANCH,AIRLOOPHVAC:OUTDOORAIRSYSTEM,FLR_3_DOAS_OA,FLR_3_DOAS SUPPLY EQUIPMENT INLET NODE,FLR_3_DOAS_OA-FLR_3_DOAS_COOLCNODE,Air Nodes
 Component Set,34,BRANCH,FLR_3_DOAS AIR LOOP MAIN BRANCH,COIL:COOLING:WATER,FLR_3_DOAS COOLING COIL,FLR_3_DOAS_OA-FLR_3_DOAS_COOLCNODE,FLR_3_DOAS_COOLC-FLR_3_DOAS_HEATCNODE,Air Nodes
 Component Set,35,BRANCH,FLR_3_DOAS AIR LOOP MAIN BRANCH,COIL:HEATING:WATER,FLR_3_DOAS HEATING COIL,FLR_3_DOAS_COOLC-FLR_3_DOAS_HEATCNODE,FLR_3_DOAS_HEATC-FLR_3_DOAS FANNODE,Air Nodes
 Component Set,36,BRANCH,FLR_3_DOAS AIR LOOP MAIN BRANCH,FAN:CONSTANTVOLUME,FLR_3_DOAS FAN,FLR_3_DOAS_HEATC-FLR_3_DOAS FANNODE,FLR_3_DOAS SUPPLY EQUIPMENT OUTLET NODE,Air Nodes
 Component Set,37,BRANCH,COOLSYS1 FLR_3_DOAS DEMAND LOAD BRANCH,COIL:COOLING:WATER,FLR_3_DOAS COOLING COIL,FLR_3_DOAS CCOIL WATER INLET,FLR_3_DOAS CCOIL WATER OUTLET,Water Nodes
 Component Set,38,BRANCH,HEATSYS1 FLR_3_DOAS DEMAND LOAD BRANCH,COIL:HEATING:WATER,FLR_3_DOAS HEATING COIL,FLR_3_DOAS HCOIL WATER INLET,FLR_3_DOAS HCOIL WATER OUTLET,Water Nodes
 Component Set,39,BRANCH,COOLSYS1 ROOM_1_FLR_3 DEMAND LOAD BRANCH,COIL:COOLING:WATER,ROOM_1_FLR_3 FAN COIL COOLING COIL,ROOM_1_FLR_3 FAN COIL CCOIL WATER INLET,ROOM_1_FLR_3 FAN COIL CCOIL WATER OUTLET,Water Nodes
 Component Set,40,BRANCH,HEATSYS1 ROOM_1_FLR_3 DEMAND LOAD BRANCH,COIL:HEATING:WATER,ROOM_1_FLR_3 FAN COIL HEATING COIL,ROOM_1_FLR_3 FAN COIL HCOIL WATER INLET,ROOM_1_FLR_3 FAN COIL HCOIL WATER OUTLET,Water Nodes
 Component Set,41,BRANCH,COOLSYS1 ROOM_2_FLR_3 DEMAND LOAD BRANCH,COIL:COOLING:WATER,ROOM_2_FLR_3 FAN COIL COOLING COIL,ROOM_2_FLR_3 FAN COIL CCOIL WATER INLET,ROOM_2_FLR_3 FAN COIL CCOIL WATER OUTLET,Water Nodes
 Component Set,42,BRANCH,HEATSYS1 ROOM_2_FLR_3 DEMAND LOAD BRANCH,COIL:HEATING:WATER,ROOM_2_FLR_3 FAN COIL HEATING COIL,ROOM_2_FLR_3 FAN COIL HCOIL WATER INLET,ROOM_2_FLR_3 FAN COIL HCOIL WATER OUTLET,Water Nodes
 Component Set,43,BRANCH,COOLSYS1 ROOM_3_MULT19_FLR_3 DEMAND LOAD BRANCH,COIL:COOLING:WATER,ROOM_3_MULT19_FLR_3 FAN COIL COOLING COIL,ROOM_3_MULT19_FLR_3 FAN COIL CCOIL WATER INLET,ROOM_3_MULT19_FLR_3 FAN COIL CCOIL WATER OUTLET,Water Nodes
 Component Set,44,BRANCH,HEATSYS1 ROOM_3_MULT19_FLR_3 DEMAND LOAD BRANCH,COIL:HEATING:WATER,ROOM_3_MULT19_FLR_3 FAN COIL HEATING COIL,ROOM_3_MULT19_FLR_3 FAN COIL HCOIL WATER INLET,ROOM_3_MULT19_FLR_3 FAN COIL HCOIL WATER OUTLET,Water Nodes
 Component Set,45,BRANCH,COOLSYS1 ROOM_4_MULT19_FLR_3 DEMAND LOAD BRANCH,COIL:COOLING:WATER,ROOM_4_MULT19_FLR_3 FAN COIL COOLING COIL,ROOM_4_MULT19_FLR_3 FAN COIL CCOIL WATER INLET,ROOM_4_MULT19_FLR_3 FAN COIL CCOIL WATER OUTLET,Water Nodes
 Component Set,46,BRANCH,HEATSYS1 ROOM_4_MULT19_FLR_3 DEMAND LOAD BRANCH,COIL:HEATING:WATER,ROOM_4_MULT19_FLR_3 FAN COIL HEATING COIL,ROOM_4_MULT19_FLR_3 FAN COIL HCOIL WATER INLET,ROOM_4_MULT19_FLR_3 FAN COIL HCOIL WATER OUTLET,Water Nodes
 Component Set,47,BRANCH,COOLSYS1 ROOM_5_FLR_3 DEMAND LOAD BRANCH,COIL:COOLING:WATER,ROOM_5_FLR_3 FAN COIL COOLING COIL,ROOM_5_FLR_3 FAN COIL CCOIL WATER INLET,ROOM_5_FLR_3 FAN COIL CCOIL WATER OUTLET,Water Nodes
 Component Set,48,BRANCH,HEATSYS1 ROOM_5_FLR_3 DEMAND LOAD BRANCH,COIL:HEATING:WATER,ROOM_5_FLR_3 FAN COIL HEATING COIL,ROOM_5_FLR_3 FAN COIL HCOIL WATER INLET,ROOM_5_FLR_3 FAN COIL HCOIL WATER OUTLET,Water Nodes
 Component Set,49,BRANCH,COOLSYS1 ROOM_6_FLR_3 DEMAND LOAD BRANCH,COIL:COOLING:WATER,ROOM_6_FLR_3 FAN COIL COOLING COIL,ROOM_6_FLR_3 FAN COIL CCOIL WATER INLET,ROOM_6_FLR_3 FAN COIL CCOIL WATER OUTLET,Water Nodes
 Component Set,50,BRANCH,HEATSYS1 ROOM_6_FLR_3 DEMAND LOAD BRANCH,COIL:HEATING:WATER,ROOM_6_FLR_3 FAN COIL HEATING COIL,ROOM_6_FLR_3 FAN COIL HCOIL WATER INLET,ROOM_6_FLR_3 FAN COIL HCOIL WATER OUTLET,Water Nodes
 Component Set,51,BRANCH,COOLSYS1 ROOM_1_FLR_6 DEMAND LOAD BRANCH,COIL:COOLING:WATER,ROOM_1_FLR_6 FAN COIL COOLING COIL,ROOM_1_FLR_6 FAN COIL CCOIL WATER INLET,ROOM_1_FLR_6 FAN COIL CCOIL WATER OUTLET,Water Nodes
 Component Set,52,BRANCH,HEATSYS1 ROOM_1_FLR_6 DEMAND LOAD BRANCH,COIL:HEATING:WATER,ROOM_1_FLR_6 FAN COIL HEATING COIL,ROOM_1_FLR_6 FAN COIL HCOIL WATER INLET,ROOM_1_FLR_6 FAN COIL HCOIL WATER OUTLET,Water Nodes
 Component Set,53,BRANCH,COOLSYS1 ROOM_2_FLR_6 DEMAND LOAD BRANCH,COIL:COOLING:WATER,ROOM_2_FLR_6 FAN COIL COOLING COIL,ROOM_2_FLR_6 FAN COIL CCOIL WATER INLET,ROOM_2_FLR_6 FAN COIL CCOIL WATER OUTLET,Water Nodes
 Component Set,54,BRANCH,HEATSYS1 ROOM_2_FLR_6 DEMAND LOAD BRANCH,COIL:HEATING:WATER,ROOM_2_FLR_6 FAN COIL HEATING COIL,ROOM_2_FLR_6 FAN COIL HCOIL WATER INLET,ROOM_2_FLR_6 FAN COIL HCOIL WATER OUTLET,Water Nodes
 Component Set,55,BRANCH,COOLSYS1 ROOM_3_MULT9_FLR_6 DEMAND LOAD BRANCH,COIL:COOLING:WATER,ROOM_3_MULT9_FLR_6 FAN COIL COOLING COIL,ROOM_3_MULT9_FLR_6 FAN COIL CCOIL WATER INLET,ROOM_3_MULT9_FLR_6 FAN COIL CCOIL WATER OUTLET,Water Nodes
 Component Set,56,BRANCH,HEATSYS1 ROOM_3_MULT9_FLR_6 DEMAND LOAD BRANCH,COIL:HEATING:WATER,ROOM_3_MULT9_FLR_6 FAN COIL HEATING COIL,ROOM_3_MULT9_FLR_6 FAN COIL HCOIL WATER INLET,ROOM_3_MULT9_FLR_6 FAN COIL HCOIL WATER OUTLET,Water Nodes
 Component Set,57,BRANCH,SWHSYS1 SUPPLY INLET BRANCH,PUMP:CONSTANTSPEED,SWHSYS1 PUMP,SWHSYS1 SUPPLY INLET NODE,SWHSYS1 PUMP-WATER HEATERNODEVIACONNECTOR,Water Nodes
 Component Set,58,BRANCH,SWHSYS1 SUPPLY EQUIPMENT BRANCH,WATERHEATER:MIXED,SWHSYS1 WATER HEATER,SWHSYS1 PUMP-WATER HEATERNODE,SWHSYS1 SUPPLY EQUIPMENT OUTLET NODE,Use Side Water Nodes
 Component Set,59,BRANCH,SWHSYS1 SUPPLY EQUIPMENT BYPASS BRANCH,PIPE:ADIABATIC,SWHSYS1 SUPPLY EQUIPMENT BYPASS PIPE,SWHSYS1 SUPPLY EQUIP BYPASS INLET NODE,SWHSYS1 SUPPLY EQUIP BYPASS OUTLET NODE,Pipe Nodes
 Component Set,60,BRANCH,SWHSYS1 SUPPLY OUTLET BRANCH,PIPE:ADIABATIC,SWHSYS1 SUPPLY OUTLET PIPE,SWHSYS1 SUPPLY MIXER-SWHSYS1 SUPPLY OUTLET PIPE,SWHSYS1 SUPPLY OUTLET NODE,Pipe Nodes
 Component Set,61,BRANCH,SWHSYS1 DEMAND INLET BRANCH,PIPE:ADIABATIC,SWHSYS1 DEMAND INLET PIPE,SWHSYS1 DEMAND INLET NODE,SWHSYS1 DEMAND INLET PIPE-SWHSYS1 DEMAND MIXER,Pipe Nodes
 Component Set,62,BRANCH,SWHSYS1 DEMAND BYPASS BRANCH,PIPE:ADIABATIC,SWHSYS1 DEMAND BYPASS PIPE,SWHSYS1 DEMAND BYPASS PIPE INLET NODE,SWHSYS1 DEMAND BYPASS PIPE OUTLET NODE,Pipe Nodes
 Component Set,63,BRANCH,SWHSYS1 DEMAND OUTLET BRANCH,PIPE:ADIABATIC,SWHSYS1 DEMAND OUTLET PIPE,SWHSYS1 DEMAND MIXER-SWHSYS1 DEMAND OUTLET PIPE,SWHSYS1 DEMAND OUTLET NODE,Pipe Nodes
 Component Set,64,BRANCH,SWH DEMAND LOAD BRANCH ROOM_1_FLR_3 WATER EQUIPMENT,WATERUSE:CONNECTIONS,ROOM_1_FLR_3 WATER EQUIPMENT,ROOM_1_FLR_3 WATER EQUIPMENT WATER INLET NODE,ROOM_1_FLR_3 WATER EQUIPMENT WATER OUTLET NODE,DHW Nodes
 Component Set,65,BRANCH,SWH DEMAND LOAD BRANCH ROOM_2_FLR_3 WATER EQUIPMENT,WATERUSE:CONNECTIONS,ROOM_2_FLR_3 WATER EQUIPMENT,ROOM_2_FLR_3 WATER EQUIPMENT WATER INLET NODE,ROOM_2_FLR_3 WATER EQUIPMENT WATER OUTLET NODE,DHW Nodes
 Component Set,66,BRANCH,SWH DEMAND LOAD BRANCH ROOM_3_MULT19_FLR_3 WATER EQUIPMENT,WATERUSE:CONNECTIONS,ROOM_3_MULT19_FLR_3 WATER EQUIPMENT,ROOM_3_MULT19_FLR_3 WATER EQUIPMENT WATER INLET NODE,ROOM_3_MULT19_FLR_3 WATER EQUIPMENT WATER OUTLET NODE,DHW Nodes
 Component Set,67,BRANCH,SWH DEMAND LOAD BRANCH ROOM_4_MULT19_FLR_3 WATER EQUIPMENT,WATERUSE:CONNECTIONS,ROOM_4_MULT19_FLR_3 WATER EQUIPMENT,ROOM_4_MULT19_FLR_3 WATER EQUIPMENT WATER INLET NODE,ROOM_4_MULT19_FLR_3 WATER EQUIPMENT WATER OUTLET NODE,DHW Nodes
 Component Set,68,BRANCH,SWH DEMAND LOAD BRANCH ROOM_5_FLR_3 WATER EQUIPMENT,WATERUSE:CONNECTIONS,ROOM_5_FLR_3 WATER EQUIPMENT,ROOM_5_FLR_3 WATER EQUIPMENT WATER INLET NODE,ROOM_5_FLR_3 WATER EQUIPMENT WATER OUTLET NODE,DHW Nodes
 Component Set,69,BRANCH,SWH DEMAND LOAD BRANCH ROOM_6_FLR_3 WATER EQUIPMENT,WATERUSE:CONNECTIONS,ROOM_6_FLR_3 WATER EQUIPMENT,ROOM_6_FLR_3 WATER EQUIPMENT WATER INLET NODE,ROOM_6_FLR_3 WATER EQUIPMENT WATER OUTLET NODE,DHW Nodes
 Component Set,70,BRANCH,SWH DEMAND LOAD BRANCH ROOM_1_FLR_6 WATER EQUIPMENT,WATERUSE:CONNECTIONS,ROOM_1_FLR_6 WATER EQUIPMENT,ROOM_1_FLR_6 WATER EQUIPMENT WATER INLET NODE,ROOM_1_FLR_6 WATER EQUIPMENT WATER OUTLET NODE,DHW Nodes
 Component Set,71,BRANCH,SWH DEMAND LOAD BRANCH ROOM_2_FLR_6 WATER EQUIPMENT,WATERUSE:CONNECTIONS,ROOM_2_FLR_6 WATER EQUIPMENT,ROOM_2_FLR_6 WATER EQUIPMENT WATER INLET NODE,ROOM_2_FLR_6 WATER EQUIPMENT WATER OUTLET NODE,DHW Nodes
 Component Set,72,BRANCH,SWH DEMAND LOAD BRANCH ROOM_3_MULT9_FLR_6 WATER EQUIPMENT,WATERUSE:CONNECTIONS,ROOM_3_MULT9_FLR_6 WATER EQUIPMENT,ROOM_3_MULT9_FLR_6 WATER EQUIPMENT WATER INLET NODE,ROOM_3_MULT9_FLR_6 WATER EQUIPMENT WATER OUTLET NODE,DHW Nodes
 Component Set,73,BRANCH,SWH DEMAND LOAD BRANCH KITCHEN_FLR_6 WATER EQUIPMENT,WATERUSE:CONNECTIONS,KITCHEN_FLR_6 WATER EQUIPMENT,KITCHEN_FLR_6 WATER EQUIPMENT WATER INLET NODE,KITCHEN_FLR_6 WATER EQUIPMENT WATER OUTLET NODE,DHW Nodes
 Component Set,74,ZONEHVAC:AIRDISTRIBUTIONUNIT,BASEMENT VAV BOX,AIRTERMINAL:SINGLEDUCT:VAV:REHEAT,BASEMENT VAV BOX COMPONENT,BASEMENT VAV BOX INLET NODE,BASEMENT VAV BOX OUTLET NODE,Air Nodes
 Component Set,75,ZONEHVAC:AIRDISTRIBUTIONUNIT,RETAIL_1_FLR_1 VAV BOX,AIRTERMINAL:SINGLEDUCT:VAV:REHEAT,RETAIL_1_FLR_1 VAV BOX COMPONENT,RETAIL_1_FLR_1 VAV BOX INLET NODE,RETAIL_1_FLR_1 VAV BOX OUTLET NODE,Air Nodes
 Component Set,76,ZONEHVAC:AIRDISTRIBUTIONUNIT,RETAIL_2_FLR_1 VAV BOX,AIRTERMINAL:SINGLEDUCT:VAV:REHEAT,RETAIL_2_FLR_1 VAV BOX COMPONENT,RETAIL_2_FLR_1 VAV BOX INLET NODE,RETAIL_2_FLR_1 VAV BOX OUTLET NODE,Air Nodes
 Component Set,77,ZONEHVAC:AIRDISTRIBUTIONUNIT,MECH_FLR_1 VAV BOX,AIRTERMINAL:SINGLEDUCT:VAV:REHEAT,MECH_FLR_1 VAV BOX COMPONENT,MECH_FLR_1 VAV BOX INLET NODE,MECH_FLR_1 VAV BOX OUTLET NODE,Air Nodes
 Component Set,78,ZONEHVAC:AIRDISTRIBUTIONUNIT,STORAGE_FLR_1 VAV BOX,AIRTERMINAL:SINGLEDUCT:VAV:REHEAT,STORAGE_FLR_1 VAV BOX COMPONENT,STORAGE_FLR_1 VAV BOX INLET NODE,STORAGE_FLR_1 VAV BOX OUTLET NODE,Air Nodes
 Component Set,79,ZONEHVAC:AIRDISTRIBUTIONUNIT,LAUNDRY_FLR_1 VAV BOX,AIRTERMINAL:SINGLEDUCT:VAV:REHEAT,LAUNDRY_FLR_1 VAV BOX COMPONENT,LAUNDRY_FLR_1 VAV BOX INLET NODE,LAUNDRY_FLR_1 VAV BOX OUTLET NODE,Air Nodes
 Component Set,80,ZONEHVAC:AIRDISTRIBUTIONUNIT,CAFE_FLR_1 VAV BOX,AIRTERMINAL:SINGLEDUCT:VAV:REHEAT,CAFE_FLR_1 VAV BOX COMPONENT,CAFE_FLR_1 VAV BOX INLET NODE,CAFE_FLR_1 VAV BOX OUTLET NODE,Air Nodes
 Component Set,81,ZONEHVAC:AIRDISTRIBUTIONUNIT,LOBBY_FLR_1 VAV BOX,AIRTERMINAL:SINGLEDUCT:VAV:REHEAT,LOBBY_FLR_1 VAV BOX COMPONENT,LOBBY_FLR_1 VAV BOX INLET NODE,LOBBY_FLR_1 VAV BOX OUTLET NODE,Air Nodes
 Component Set,82,ZONEHVAC:AIRDISTRIBUTIONUNIT,CORRIDOR_FLR_3 VAV BOX,AIRTERMINAL:SINGLEDUCT:VAV:REHEAT,CORRIDOR_FLR_3 VAV BOX COMPONENT,CORRIDOR_FLR_3 VAV BOX INLET NODE,CORRIDOR_FLR_3 VAV BOX OUTLET NODE,Air Nodes
 Component Set,83,ZONEHVAC:AIRDISTRIBUTIONUNIT,CORRIDOR_FLR_6 VAV BOX,AIRTERMINAL:SINGLEDUCT:VAV:REHEAT,CORRIDOR_FLR_6 VAV BOX COMPONENT,CORRIDOR_FLR_6 VAV BOX INLET NODE,CORRIDOR_FLR_6 VAV BOX OUTLET NODE,Air Nodes
 Component Set,84,ZONEHVAC:AIRDISTRIBUTIONUNIT,BANQUET_FLR_6 VAV BOX,AIRTERMINAL:SINGLEDUCT:VAV:REHEAT,BANQUET_FLR_6 VAV BOX COMPONENT,BANQUET_FLR_6 VAV BOX INLET NODE,BANQUET_FLR_6 VAV BOX OUTLET NODE,Air Nodes
 Component Set,85,ZONEHVAC:AIRDISTRIBUTIONUNIT,DINING_FLR_6 VAV BOX,AIRTERMINAL:SINGLEDUCT:VAV:REHEAT,DINING_FLR_6 VAV BOX COMPONENT,DINING_FLR_6 VAV BOX INLET NODE,DINING_FLR_6 VAV BOX OUTLET NODE,Air Nodes
 Component Set,86,ZONEHVAC:AIRDISTRIBUTIONUNIT,KITCHEN_FLR_6 VAV BOX,AIRTERMINAL:SINGLEDUCT:VAV:REHEAT,KITCHEN_FLR_6 VAV BOX COMPONENT,KITCHEN_FLR_6 VAV BOX INLET NODE,KITCHEN_FLR_6 VAV BOX OUTLET NODE,Air Nodes
 Component Set,87,ZONEHVAC:AIRDISTRIBUTIONUNIT,ROOM_1_FLR_3 PSZ ADU,AIRTERMINAL:SINGLEDUCT:CONSTANTVOLUME:NOREHEAT,ROOM_1_FLR_3 DIRECT AIR,ROOM_1_FLR_3 DOAS SUPPLY NODE,ROOM_1_FLR_3 DOAS DIRECT AIR INLET NODE,Air Nodes
 Component Set,88,ZONEHVAC:AIRDISTRIBUTIONUNIT,ROOM_2_FLR_3 PSZ ADU,AIRTERMINAL:SINGLEDUCT:CONSTANTVOLUME:NOREHEAT,ROOM_2_FLR_3 DIRECT AIR,ROOM_2_FLR_3 DOAS SUPPLY NODE,ROOM_2_FLR_3 DOAS DIRECT AIR INLET NODE,Air Nodes
 Component Set,89,ZONEHVAC:AIRDISTRIBUTIONUNIT,ROOM_3_MULT19_FLR_3 PSZ ADU,AIRTERMINAL:SINGLEDUCT:CONSTANTVOLUME:NOREHEAT,ROOM_3_MULT19_FLR_3 DIRECT AIR,ROOM_3_MULT19_FLR_3 DOAS SUPPLY NODE,ROOM_3_MULT19_FLR_3 DOAS DIRECT AIR INLET NODE,Air Nodes
 Component Set,90,ZONEHVAC:AIRDISTRIBUTIONUNIT,ROOM_4_MULT19_FLR_3 PSZ ADU,AIRTERMINAL:SINGLEDUCT:CONSTANTVOLUME:NOREHEAT,ROOM_4_MULT19_FLR_3 DIRECT AIR,ROOM_4_MULT19_FLR_3 DOAS SUPPLY NODE,ROOM_4_MULT19_FLR_3 DOAS DIRECT AIR INLET NODE,Air Nodes
 Component Set,91,ZONEHVAC:AIRDISTRIBUTIONUNIT,ROOM_5_FLR_3 PSZ ADU,AIRTERMINAL:SINGLEDUCT:CONSTANTVOLUME:NOREHEAT,ROOM_5_FLR_3 DIRECT AIR,ROOM_5_FLR_3 DOAS SUPPLY NODE,ROOM_5_FLR_3 DOAS DIRECT AIR INLET NODE,Air Nodes
 Component Set,92,ZONEHVAC:AIRDISTRIBUTIONUNIT,ROOM_6_FLR_3 PSZ ADU,AIRTERMINAL:SINGLEDUCT:CONSTANTVOLUME:NOREHEAT,ROOM_6_FLR_3 DIRECT AIR,ROOM_6_FLR_3 DOAS SUPPLY NODE,ROOM_6_FLR_3 DOAS DIRECT AIR INLET NODE,Air Nodes
 Component Set,93,ZONEHVAC:AIRDISTRIBUTIONUNIT,ROOM_1_FLR_6 PSZ ADU,AIRTERMINAL:SINGLEDUCT:CONSTANTVOLUME:NOREHEAT,ROOM_1_FLR_6 DIRECT AIR,ROOM_1_FLR_6 DOAS SUPPLY NODE,ROOM_1_FLR_6 DOAS DIRECT AIR INLET NODE,Air Nodes
 Component Set,94,ZONEHVAC:AIRDISTRIBUTIONUNIT,ROOM_2_FLR_6 PSZ ADU,AIRTERMINAL:SINGLEDUCT:CONSTANTVOLUME:NOREHEAT,ROOM_2_FLR_6 DIRECT AIR,ROOM_2_FLR_6 DOAS SUPPLY NODE,ROOM_2_FLR_6 DOAS DIRECT AIR INLET NODE,Air Nodes
 Component Set,95,ZONEHVAC:AIRDISTRIBUTIONUNIT,ROOM_3_MULT9_FLR_6 PSZ ADU,AIRTERMINAL:SINGLEDUCT:CONSTANTVOLUME:NOREHEAT,ROOM_3_MULT9_FLR_6 DIRECT AIR,ROOM_3_MULT9_FLR_6 DOAS SUPPLY NODE,ROOM_3_MULT9_FLR_6 DOAS DIRECT AIR INLET NODE,Air Nodes
 Component Set,96,AIRTERMINAL:SINGLEDUCT:VAV:REHEAT,BASEMENT VAV BOX COMPONENT,COIL:HEATING:WATER,BASEMENT VAV BOX REHEAT COIL,BASEMENT VAV BOX DAMPER NODE,BASEMENT VAV BOX OUTLET NODE,Air Nodes
 Component Set,97,AIRTERMINAL:SINGLEDUCT:VAV:REHEAT,RETAIL_1_FLR_1 VAV BOX COMPONENT,COIL:HEATING:WATER,RETAIL_1_FLR_1 VAV BOX REHEAT COIL,RETAIL_1_FLR_1 VAV BOX DAMPER NODE,RETAIL_1_FLR_1 VAV BOX OUTLET NODE,Air Nodes
 Component Set,98,AIRTERMINAL:SINGLEDUCT:VAV:REHEAT,RETAIL_2_FLR_1 VAV BOX COMPONENT,COIL:HEATING:WATER,RETAIL_2_FLR_1 VAV BOX REHEAT COIL,RETAIL_2_FLR_1 VAV BOX DAMPER NODE,RETAIL_2_FLR_1 VAV BOX OUTLET NODE,Air Nodes
 Component Set,99,AIRTERMINAL:SINGLEDUCT:VAV:REHEAT,MECH_FLR_1 VAV BOX COMPONENT,COIL:HEATING:WATER,MECH_FLR_1 VAV BOX REHEAT COIL,MECH_FLR_1 VAV BOX DAMPER NODE,MECH_FLR_1 VAV BOX OUTLET NODE,Air Nodes
 Component Set,100,AIRTERMINAL:SINGLEDUCT:VAV:REHEAT,STORAGE_FLR_1 VAV BOX COMPONENT,COIL:HEATING:WATER,STORAGE_FLR_1 VAV BOX REHEAT COIL,STORAGE_FLR_1 VAV BOX DAMPER NODE,STORAGE_FLR_1 VAV BOX OUTLET NODE,Air Nodes
 Component Set,101,AIRTERMINAL:SINGLEDUCT:VAV:REHEAT,LAUNDRY_FLR_1 VAV BOX COMPONENT,COIL:HEATING:WATER,LAUNDRY_FLR_1 VAV BOX REHEAT COIL,LAUNDRY_FLR_1 VAV BOX DAMPER NODE,LAUNDRY_FLR_1 VAV BOX OUTLET NODE,Air Nodes
 Component Set,102,AIRTERMINAL:SINGLEDUCT:VAV:REHEAT,CAFE_FLR_1 VAV BOX COMPONENT,COIL:HEATING:WATER,CAFE_FLR_1 VAV BOX REHEAT COIL,CAFE_FLR_1 VAV BOX DAMPER NODE,CAFE_FLR_1 VAV BOX OUTLET NODE,Air Nodes
 Component Set,103,AIRTERMINAL:SINGLEDUCT:VAV:REHEAT,LOBBY_FLR_1 VAV BOX COMPONENT,COIL:HEATING:WATER,LOBBY_FLR_1 VAV BOX REHEAT COIL,LOBBY_FLR_1 VAV BOX DAMPER NODE,LOBBY_FLR_1 VAV BOX OUTLET NODE,Air Nodes
 Component Set,104,AIRTERMINAL:SINGLEDUCT:VAV:REHEAT,CORRIDOR_FLR_3 VAV BOX COMPONENT,COIL:HEATING:WATER,CORRIDOR_FLR_3 VAV BOX REHEAT COIL,CORRIDOR_FLR_3 VAV BOX DAMPER NODE,CORRIDOR_FLR_3 VAV BOX OUTLET NODE,Air Nodes
 Component Set,105,AIRTERMINAL:SINGLEDUCT:VAV:REHEAT,CORRIDOR_FLR_6 VAV BOX COMPONENT,COIL:HEATING:WATER,CORRIDOR_FLR_6 VAV BOX REHEAT COIL,CORRIDOR_FLR_6 VAV BOX DAMPER NODE,CORRIDOR_FLR_6 VAV BOX OUTLET NODE,Air Nodes
 Component Set,106,AIRTERMINAL:SINGLEDUCT:VAV:REHEAT,BANQUET_FLR_6 VAV BOX COMPONENT,COIL:HEATING:WATER,BANQUET_FLR_6 VAV BOX REHEAT COIL,BANQUET_FLR_6 VAV BOX DAMPER NODE,BANQUET_FLR_6 VAV BOX OUTLET NODE,Air Nodes
 Component Set,107,AIRTERMINAL:SINGLEDUCT:VAV:REHEAT,DINING_FLR_6 VAV BOX COMPONENT,COIL:HEATING:WATER,DINING_FLR_6 VAV BOX REHEAT COIL,DINING_FLR_6 VAV BOX DAMPER NODE,DINING_FLR_6 VAV BOX OUTLET NODE,Air Nodes
 Component Set,108,AIRTERMINAL:SINGLEDUCT:VAV:REHEAT,KITCHEN_FLR_6 VAV BOX COMPONENT,COIL:HEATING:WATER,KITCHEN_FLR_6 VAV BOX REHEAT COIL,KITCHEN_FLR_6 VAV BOX DAMPER NODE,KITCHEN_FLR_6 VAV BOX OUTLET NODE,Air Nodes
 Component Set,109,ZONEHVAC:FOURPIPEFANCOIL,ROOM_1_FLR_3 FAN COIL,COIL:HEATING:WATER,ROOM_1_FLR_3 FAN COIL HEATING COIL,ROOM_1_FLR_3 FAN COIL COOLING COIL OUTLET,ROOM_1_FLR_3 FAN COIL SUPPLY INLET,Air Nodes
 Component Set,110,ZONEHVAC:FOURPIPEFANCOIL,ROOM_2_FLR_3 FAN COIL,COIL:HEATING:WATER,ROOM_2_FLR_3 FAN COIL HEATING COIL,ROOM_2_FLR_3 FAN COIL COOLING COIL OUTLET,ROOM_2_FLR_3 FAN COIL SUPPLY INLET,Air Nodes
 Component Set,111,ZONEHVAC:FOURPIPEFANCOIL,ROOM_3_MULT19_FLR_3 FAN COIL,COIL:HEATING:WATER,ROOM_3_MULT19_FLR_3 FAN COIL HEATING COIL,ROOM_3_MULT19_FLR_3 FAN COIL COOLING COIL OUTLET,ROOM_3_MULT19_FLR_3 FAN COIL SUPPLY INLET,Air Nodes
 Component Set,112,ZONEHVAC:FOURPIPEFANCOIL,ROOM_4_MULT19_FLR_3 FAN COIL,COIL:HEATING:WATER,ROOM_4_MULT19_FLR_3 FAN COIL HEATING COIL,ROOM_4_MULT19_FLR_3 FAN COIL COOLING COIL OUTLET,ROOM_4_MULT19_FLR_3 FAN COIL SUPPLY INLET,Air Nodes
 Component Set,113,ZONEHVAC:FOURPIPEFANCOIL,ROOM_5_FLR_3 FAN COIL,COIL:HEATING:WATER,ROOM_5_FLR_3 FAN COIL HEATING COIL,ROOM_5_FLR_3 FAN COIL COOLING COIL OUTLET,ROOM_5_FLR_3 FAN COIL SUPPLY INLET,Air Nodes
 Component Set,114,ZONEHVAC:FOURPIPEFANCOIL,ROOM_6_FLR_3 FAN COIL,COIL:HEATING:WATER,ROOM_6_FLR_3 FAN COIL HEATING COIL,ROOM_6_FLR_3 FAN COIL COOLING COIL OUTLET,ROOM_6_FLR_3 FAN COIL SUPPLY INLET,Air Nodes
 Component Set,115,ZONEHVAC:FOURPIPEFANCOIL,ROOM_1_FLR_6 FAN COIL,COIL:HEATING:WATER,ROOM_1_FLR_6 FAN COIL HEATING COIL,ROOM_1_FLR_6 FAN COIL COOLING COIL OUTLET,ROOM_1_FLR_6 FAN COIL SUPPLY INLET,Air Nodes
 Component Set,116,ZONEHVAC:FOURPIPEFANCOIL,ROOM_2_FLR_6 FAN COIL,COIL:HEATING:WATER,ROOM_2_FLR_6 FAN COIL HEATING COIL,ROOM_2_FLR_6 FAN COIL COOLING COIL OUTLET,ROOM_2_FLR_6 FAN COIL SUPPLY INLET,Air Nodes
 Component Set,117,ZONEHVAC:FOURPIPEFANCOIL,ROOM_3_MULT9_FLR_6 FAN COIL,COIL:HEATING:WATER,ROOM_3_MULT9_FLR_6 FAN COIL HEATING COIL,ROOM_3_MULT9_FLR_6 FAN COIL COOLING COIL OUTLET,ROOM_3_MULT9_FLR_6 FAN COIL SUPPLY INLET,Air Nodes
 Component Set,118,ZONEHVAC:FOURPIPEFANCOIL,ROOM_1_FLR_3 FAN COIL,COIL:COOLING:WATER,ROOM_1_FLR_3 FAN COIL COOLING COIL,ROOM_1_FLR_3 FAN COIL SUPPLY FAN OUTLET,ROOM_1_FLR_3 FAN COIL COOLING COIL OUTLET,Air Nodes
 Component Set,119,ZONEHVAC:FOURPIPEFANCOIL,ROOM_2_FLR_3 FAN COIL,COIL:COOLING:WATER,ROOM_2_FLR_3 FAN COIL COOLING COIL,ROOM_2_FLR_3 FAN COIL SUPPLY FAN OUTLET,ROOM_2_FLR_3 FAN COIL COOLING COIL OUTLET,Air Nodes
 Component Set,120,ZONEHVAC:FOURPIPEFANCOIL,ROOM_3_MULT19_FLR_3 FAN COIL,COIL:COOLING:WATER,ROOM_3_MULT19_FLR_3 FAN COIL COOLING COIL,ROOM_3_MULT19_FLR_3 FAN COIL SUPPLY FAN OUTLET,ROOM_3_MULT19_FLR_3 FAN COIL COOLING COIL OUTLET,Air Nodes
 Component Set,121,ZONEHVAC:FOURPIPEFANCOIL,ROOM_4_MULT19_FLR_3 FAN COIL,COIL:COOLING:WATER,ROOM_4_MULT19_FLR_3 FAN COIL COOLING COIL,ROOM_4_MULT19_FLR_3 FAN COIL SUPPLY FAN OUTLET,ROOM_4_MULT19_FLR_3 FAN COIL COOLING COIL OUTLET,Air Nodes
 Component Set,122,ZONEHVAC:FOURPIPEFANCOIL,ROOM_5_FLR_3 FAN COIL,COIL:COOLING:WATER,ROOM_5_FLR_3 FAN COIL COOLING COIL,ROOM_5_FLR_3 FAN COIL SUPPLY FAN OUTLET,ROOM_5_FLR_3 FAN COIL COOLING COIL OUTLET,Air Nodes
 Component Set,123,ZONEHVAC:FOURPIPEFANCOIL,ROOM_6_FLR_3 FAN COIL,COIL:COOLING:WATER,ROOM_6_FLR_3 FAN COIL COOLING COIL,ROOM_6_FLR_3 FAN COIL SUPPLY FAN OUTLET,ROOM_6_FLR_3 FAN COIL COOLING COIL OUTLET,Air Nodes
 Component Set,124,ZONEHVAC:FOURPIPEFANCOIL,ROOM_1_FLR_6 FAN COIL,COIL:COOLING:WATER,ROOM_1_FLR_6 FAN COIL COOLING COIL,ROOM_1_FLR_6 FAN COIL SUPPLY FAN OUTLET,ROOM_1_FLR_6 FAN COIL COOLING COIL OUTLET,Air Nodes
 Component Set,125,ZONEHVAC:FOURPIPEFANCOIL,ROOM_2_FLR_6 FAN COIL,COIL:COOLING:WATER,ROOM_2_FLR_6 FAN COIL COOLING COIL,ROOM_2_FLR_6 FAN COIL SUPPLY FAN OUTLET,ROOM_2_FLR_6 FAN COIL COOLING COIL OUTLET,Air Nodes
 Component Set,126,ZONEHVAC:FOURPIPEFANCOIL,ROOM_3_MULT9_FLR_6 FAN COIL,COIL:COOLING:WATER,ROOM_3_MULT9_FLR_6 FAN COIL COOLING COIL,ROOM_3_MULT9_FLR_6 FAN COIL SUPPLY FAN OUTLET,ROOM_3_MULT9_FLR_6 FAN COIL COOLING COIL OUTLET,Air Nodes
 Component Set,127,AIRLOOPHVAC:OUTDOORAIRSYSTEM,VAV WITH REHEAT_OA,HEATEXCHANGER:AIRTOAIR:SENSIBLEANDLATENT,VAV WITH REHEAT OA HEAT RECOVERY,VAV WITH REHEAT_OAINLET NODE,VAV WITH REHEAT HEAT RECOVERY OUTLET NODE,Process Air Nodes
 Component Set,128,AIRLOOPHVAC:OUTDOORAIRSYSTEM,VAV WITH REHEAT_OA,OUTDOORAIR:MIXER,VAV WITH REHEAT_OAMIXING BOX,VAV WITH REHEAT HEAT RECOVERY OUTLET NODE,VAV WITH REHEAT_OA-VAV WITH REHEAT_COOLCNODE,Air Nodes
 Component Set,129,AIRLOOPHVAC:OUTDOORAIRSYSTEM,FLR_3_DOAS_OA,HEATEXCHANGER:AIRTOAIR:SENSIBLEANDLATENT,FLR_3_DOAS OA HEAT RECOVERY,FLR_3_DOAS_OAINLET NODE,FLR_3_DOAS HEAT RECOVERY OUTLET NODE,Process Air Nodes
 Component Set,130,AIRLOOPHVAC:OUTDOORAIRSYSTEM,FLR_3_DOAS_OA,OUTDOORAIR:MIXER,FLR_3_DOAS_OAMIXING BOX,FLR_3_DOAS HEAT RECOVERY OUTLET NODE,FLR_3_DOAS_OA-FLR_3_DOAS_COOLCNODE,Air Nodes
 Component Set,131,ZONEHVAC:FOURPIPEFANCOIL,ROOM_1_FLR_3 FAN COIL,FAN:ONOFF,ROOM_1_FLR_3 FAN COIL FAN COILFAN_FAN,ROOM_1_FLR_3 FAN COIL MIXED AIR OUTLET,ROOM_1_FLR_3 FAN COIL SUPPLY FAN OUTLET,Air Nodes
 Component Set,132,ZONEHVAC:FOURPIPEFANCOIL,ROOM_2_FLR_3 FAN COIL,FAN:ONOFF,ROOM_2_FLR_3 FAN COIL FAN COILFAN_FAN,ROOM_2_FLR_3 FAN COIL MIXED AIR OUTLET,ROOM_2_FLR_3 FAN COIL SUPPLY FAN OUTLET,Air Nodes
 Component Set,133,ZONEHVAC:FOURPIPEFANCOIL,ROOM_3_MULT19_FLR_3 FAN COIL,FAN:ONOFF,ROOM_3_MULT19_FLR_3 FAN COIL FAN COILFAN_FAN,ROOM_3_MULT19_FLR_3 FAN COIL MIXED AIR OUTLET,ROOM_3_MULT19_FLR_3 FAN COIL SUPPLY FAN OUTLET,Air Nodes
 Component Set,134,ZONEHVAC:FOURPIPEFANCOIL,ROOM_4_MULT19_FLR_3 FAN COIL,FAN:ONOFF,ROOM_4_MULT19_FLR_3 FAN COIL FAN COILFAN_FAN,ROOM_4_MULT19_FLR_3 FAN COIL MIXED AIR OUTLET,ROOM_4_MULT19_FLR_3 FAN COIL SUPPLY FAN OUTLET,Air Nodes
 Component Set,135,ZONEHVAC:FOURPIPEFANCOIL,ROOM_5_FLR_3 FAN COIL,FAN:ONOFF,ROOM_5_FLR_3 FAN COIL FAN COILFAN_FAN,ROOM_5_FLR_3 FAN COIL MIXED AIR OUTLET,ROOM_5_FLR_3 FAN COIL SUPPLY FAN OUTLET,Air Nodes
 Component Set,136,ZONEHVAC:FOURPIPEFANCOIL,ROOM_6_FLR_3 FAN COIL,FAN:ONOFF,ROOM_6_FLR_3 FAN COIL FAN COILFAN_FAN,ROOM_6_FLR_3 FAN COIL MIXED AIR OUTLET,ROOM_6_FLR_3 FAN COIL SUPPLY FAN OUTLET,Air Nodes
 Component Set,137,ZONEHVAC:FOURPIPEFANCOIL,ROOM_1_FLR_6 FAN COIL,FAN:ONOFF,ROOM_1_FLR_6 FAN COIL FAN COILFAN_FAN,ROOM_1_FLR_6 FAN COIL MIXED AIR OUTLET,ROOM_1_FLR_6 FAN COIL SUPPLY FAN OUTLET,Air Nodes
 Component Set,138,ZONEHVAC:FOURPIPEFANCOIL,ROOM_2_FLR_6 FAN COIL,FAN:ONOFF,ROOM_2_FLR_6 FAN COIL FAN COILFAN_FAN,ROOM_2_FLR_6 FAN COIL MIXED AIR OUTLET,ROOM_2_FLR_6 FAN COIL SUPPLY FAN OUTLET,Air Nodes
 Component Set,139,ZONEHVAC:FOURPIPEFANCOIL,ROOM_3_MULT9_FLR_6 FAN COIL,FAN:ONOFF,ROOM_3_MULT9_FLR_6 FAN COIL FAN COILFAN_FAN,ROOM_3_MULT9_FLR_6 FAN COIL MIXED AIR OUTLET,ROOM_3_MULT9_FLR_6 FAN COIL SUPPLY FAN OUTLET,Air Nodes
 Component Set,140,ZONEHVAC:FOURPIPEFANCOIL,ROOM_1_FLR_3 FAN COIL,OUTDOORAIR:MIXER,ROOM_1_FLR_3 FAN COIL OA MIXING BOX,ROOM_1_FLR_3 FAN COIL OUTSIDE AIR INLET,ROOM_1_FLR_3 FAN COIL MIXED AIR OUTLET,Air Nodes
 Component Set,141,ZONEHVAC:FOURPIPEFANCOIL,ROOM_2_FLR_3 FAN COIL,OUTDOORAIR:MIXER,ROOM_2_FLR_3 FAN COIL OA MIXING BOX,ROOM_2_FLR_3 FAN COIL OUTSIDE AIR INLET,ROOM_2_FLR_3 FAN COIL MIXED AIR OUTLET,Air Nodes
 Component Set,142,ZONEHVAC:FOURPIPEFANCOIL,ROOM_3_MULT19_FLR_3 FAN COIL,OUTDOORAIR:MIXER,ROOM_3_MULT19_FLR_3 FAN COIL OA MIXING BOX,ROOM_3_MULT19_FLR_3 FAN COIL OUTSIDE AIR INLET,ROOM_3_MULT19_FLR_3 FAN COIL MIXED AIR OUTLET,Air Nodes
 Component Set,143,ZONEHVAC:FOURPIPEFANCOIL,ROOM_4_MULT19_FLR_3 FAN COIL,OUTDOORAIR:MIXER,ROOM_4_MULT19_FLR_3 FAN COIL OA MIXING BOX,ROOM_4_MULT19_FLR_3 FAN COIL OUTSIDE AIR INLET,ROOM_4_MULT19_FLR_3 FAN COIL MIXED AIR OUTLET,Air Nodes
 Component Set,144,ZONEHVAC:FOURPIPEFANCOIL,ROOM_5_FLR_3 FAN COIL,OUTDOORAIR:MIXER,ROOM_5_FLR_3 FAN COIL OA MIXING BOX,ROOM_5_FLR_3 FAN COIL OUTSIDE AIR INLET,ROOM_5_FLR_3 FAN COIL MIXED AIR OUTLET,Air Nodes
 Component Set,145,ZONEHVAC:FOURPIPEFANCOIL,ROOM_6_FLR_3 FAN COIL,OUTDOORAIR:MIXER,ROOM_6_FLR_3 FAN COIL OA MIXING BOX,ROOM_6_FLR_3 FAN COIL OUTSIDE AIR INLET,ROOM_6_FLR_3 FAN COIL MIXED AIR OUTLET,Air Nodes
 Component Set,146,ZONEHVAC:FOURPIPEFANCOIL,ROOM_1_FLR_6 FAN COIL,OUTDOORAIR:MIXER,ROOM_1_FLR_6 FAN COIL OA MIXING BOX,ROOM_1_FLR_6 FAN COIL OUTSIDE AIR INLET,ROOM_1_FLR_6 FAN COIL MIXED AIR OUTLET,Air Nodes
 Component Set,147,ZONEHVAC:FOURPIPEFANCOIL,ROOM_2_FLR_6 FAN COIL,OUTDOORAIR:MIXER,ROOM_2_FLR_6 FAN COIL OA MIXING BOX,ROOM_2_FLR_6 FAN COIL OUTSIDE AIR INLET,ROOM_2_FLR_6 FAN COIL MIXED AIR OUTLET,Air Nodes
 Component Set,148,ZONEHVAC:FOURPIPEFANCOIL,ROOM_3_MULT9_FLR_6 FAN COIL,OUTDOORAIR:MIXER,ROOM_3_MULT9_FLR_6 FAN COIL OA MIXING BOX,ROOM_3_MULT9_FLR_6 FAN COIL OUTSIDE AIR INLET,ROOM_3_MULT9_FLR_6 FAN COIL MIXED AIR OUTLET,Air Nodes
! ===============================================================
! <# Plant Loops>,<Number of Plant Loops>
 #Plant Loops,3
! <Plant Loop>,<Plant Loop Name>,<Loop Type>,<Inlet Node Name>,<Outlet Node Name>,<Branch List>,<Connector List>
[...]
 Non-Parent Node Connection,BANQUET_FLR_6 VAV BOX DAMPER NODE,AIRTERMINAL:SINGLEDUCT:VAV:REHEAT,BANQUET_FLR_6 VAV BOX COMPONENT,Outlet,1
 Non-Parent Node Connection,BANQUET_FLR_6 VAV BOX INLET NODE,AIRTERMINAL:SINGLEDUCT:VAV:REHEAT,BANQUET_FLR_6 VAV BOX COMPONENT,Inlet,1
 Non-Parent Node Connection,DINING_FLR_6 VAV BOX DAMPER NODE,AIRTERMINAL:SINGLEDUCT:VAV:REHEAT,DINING_FLR_6 VAV BOX COMPONENT,Outlet,1
 Non-Parent Node Connection,DINING_FLR_6 VAV BOX INLET NODE,AIRTERMINAL:SINGLEDUCT:VAV:REHEAT,DINING_FLR_6 VAV BOX COMPONENT,Inlet,1
 Non-Parent Node Connection,KITCHEN_FLR_6 VAV BOX DAMPER NODE,AIRTERMINAL:SINGLEDUCT:VAV:REHEAT,KITCHEN_FLR_6 VAV BOX COMPONENT,Outlet,1
 Non-Parent Node Connection,KITCHEN_FLR_6 VAV BOX INLET NODE,AIRTERMINAL:SINGLEDUCT:VAV:REHEAT,KITCHEN_FLR_6 VAV BOX COMPONENT,Inlet,1
 Non-Parent Node Connection,ROOM_1_FLR_3 DOAS SUPPLY NODE,AIRTERMINAL:SINGLEDUCT:CONSTANTVOLUME:NOREHEAT,ROOM_1_FLR_3 DIRECT AIR,Inlet,1
 Non-Parent Node Connection,ROOM_1_FLR_3 DOAS DIRECT AIR INLET NODE,AIRTERMINAL:SINGLEDUCT:CONSTANTVOLUME:NOREHEAT,ROOM_1_FLR_3 DIRECT AIR,Outlet,1
 Non-Parent Node Connection,ROOM_2_FLR_3 DOAS SUPPLY NODE,AIRTERMINAL:SINGLEDUCT:CONSTANTVOLUME:NOREHEAT,ROOM_2_FLR_3 DIRECT AIR,Inlet,1
 Non-Parent Node Connection,ROOM_2_FLR_3 DOAS DIRECT AIR INLET NODE,AIRTERMINAL:SINGLEDUCT:CONSTANTVOLUME:NOREHEAT,ROOM_2_FLR_3 DIRECT AIR,Outlet,1
 Non-Parent Node Connection,ROOM_3_MULT19_FLR_3 DOAS SUPPLY NODE,AIRTERMINAL:SINGLEDUCT:CONSTANTVOLUME:NOREHEAT,ROOM_3_MULT19_FLR_3 DIRECT AIR,Inlet,1
 Non-Parent Node Connection,ROOM_3_MULT19_FLR_3 DOAS DIRECT AIR INLET NODE,AIRTERMINAL:SINGLEDUCT:CONSTANTVOLUME:NOREHEAT,ROOM_3_MULT19_FLR_3 DIRECT AIR,Outlet,1
 Non-Parent Node Connection,ROOM_4_MULT19_FLR_3 DOAS SUPPLY NODE,AIRTERMINAL:SINGLEDUCT:CONSTANTVOLUME:NOREHEAT,ROOM_4_MULT19_FLR_3 DIRECT AIR,Inlet,1
 Non-Parent Node Connection,ROOM_4_MULT19_FLR_3 DOAS DIRECT AIR INLET NODE,AIRTERMINAL:SINGLEDUCT:CONSTANTVOLUME:NOREHEAT,ROOM_4_MULT19_FLR_3 DIRECT AIR,Outlet,1
 Non-Parent Node Connection,ROOM_5_FLR_3 DOAS SUPPLY NODE,AIRTERMINAL:SINGLEDUCT:CONSTANTVOLUME:NOREHEAT,ROOM_5_FLR_3 DIRECT AIR,Inlet,1
 Non-Parent Node Connection,ROOM_5_FLR_3 DOAS DIRECT AIR INLET NODE,AIRTERMINAL:SINGLEDUCT:CONSTANTVOLUME:NOREHEAT,ROOM_5_FLR_3 DIRECT AIR,Outlet,1
 Non-Parent Node Connection,ROOM_6_FLR_3 DOAS SUPPLY NODE,AIRTERMINAL:SINGLEDUCT:CONSTANTVOLUME:NOREHEAT,ROOM_6_FLR_3 DIRECT AIR,Inlet,1
 Non-Parent Node Connection,ROOM_6_FLR_3 DOAS DIRECT AIR INLET NODE,AIRTERMINAL:SINGLEDUCT:CONSTANTVOLUME:NOREHEAT,ROOM_6_FLR_3 DIRECT AIR,Outlet,1
 Non-Parent Node Connection,ROOM_1_FLR_6 DOAS SUPPLY NODE,AIRTERMINAL:SINGLEDUCT:CONSTANTVOLUME:NOREHEAT,ROOM_1_FLR_6 DIRECT AIR,Inlet,1
 Non-Parent Node Connection,ROOM_1_FLR_6 DOAS DIRECT AIR INLET NODE,AIRTERMINAL:SINGLEDUCT:CONSTANTVOLUME:NOREHEAT,ROOM_1_FLR_6 DIRECT AIR,Outlet,1
 Non-Parent Node Connection,ROOM_2_FLR_6 DOAS SUPPLY NODE,AIRTERMINAL:SINGLEDUCT:CONSTANTVOLUME:NOREHEAT,ROOM_2_FLR_6 DIRECT AIR,Inlet,1
 Non-Parent Node Connection,ROOM_2_FLR_6 DOAS DIRECT AIR INLET NODE,AIRTERMINAL:SINGLEDUCT:CONSTANTVOLUME:NOREHEAT,ROOM_2_FLR_6 DIRECT AIR,Outlet,1
 Non-Parent Node Connection,ROOM_3_MULT9_FLR_6 DOAS SUPPLY NODE,AIRTERMINAL:SINGLEDUCT:CONSTANTVOLUME:NOREHEAT,ROOM_3_MULT9_FLR_6 DIRECT AIR,Inlet,1
 Non-Parent Node Connection,ROOM_3_MULT9_FLR_6 DOAS DIRECT AIR INLET NODE,AIRTERMINAL:SINGLEDUCT:CONSTANTVOLUME:NOREHEAT,ROOM_3_MULT9_FLR_6 DIRECT AIR,Outlet,1
 Non-Parent Node Connection,VAV WITH REHEAT_COOLC-VAV WITH REHEAT_HEATCNODE,CONTROLLER:WATERCOIL,VAV WITH REHEAT_COOLC_CONTROLLER,Sensor,1
 Non-Parent Node Connection,VAV WITH REHEAT CCOIL WATER INLET,CONTROLLER:WATERCOIL,VAV WITH REHEAT_COOLC_CONTROLLER,Actuator,1
 Non-Parent Node Connection,VAV WITH REHEAT_HEATC-VAV WITH REHEAT FANNODE,CONTROLLER:WATERCOIL,VAV WITH REHEAT_HEATC_CONTROLLER,Sensor,1
 Non-Parent Node Connection,VAV WITH REHEAT HCOIL WATER INLET,CONTROLLER:WATERCOIL,VAV WITH REHEAT_HEATC_CONTROLLER,Actuator,1
 Non-Parent Node Connection,FLR_3_DOAS_COOLC-FLR_3_DOAS_HEATCNODE,CONTROLLER:WATERCOIL,FLR_3_DOAS_COOLC_CONTROLLER,Sensor,1
 Non-Parent Node Connection,FLR_3_DOAS CCOIL WATER INLET,CONTROLLER:WATERCOIL,FLR_3_DOAS_COOLC_CONTROLLER,Actuator,1
 Non-Parent Node Connection,FLR_3_DOAS_HEATC-FLR_3_DOAS FANNODE,CONTROLLER:WATERCOIL,FLR_3_DOAS_HEATC_CONTROLLER,Sensor,1
 Non-Parent Node Connection,FLR_3_DOAS HCOIL WATER INLET,CONTROLLER:WATERCOIL,FLR_3_DOAS_HEATC_CONTROLLER,Actuator,1
 Non-Parent Node Connection,FLR_3_DOAS_HEATC-FLR_3_DOAS FANNODE,FAN:CONSTANTVOLUME,FLR_3_DOAS FAN,Inlet,1
 Non-Parent Node Connection,FLR_3_DOAS SUPPLY EQUIPMENT OUTLET NODE,FAN:CONSTANTVOLUME,FLR_3_DOAS FAN,Outlet,1
 Non-Parent Node Connection,VAV WITH REHEAT_HEATC-VAV WITH REHEAT FANNODE,FAN:VARIABLEVOLUME,VAV WITH REHEAT FAN,Inlet,1
 Non-Parent Node Connection,VAV WITH REHEAT SUPPLY EQUIPMENT OUTLET NODE,FAN:VARIABLEVOLUME,VAV WITH REHEAT FAN,Outlet,1
 Non-Parent Node Connection,LAUNDRY_FLR_1 EXHAUST FAN NODE,FAN:ZONEEXHAUST,LAUNDRY_FLR_1 EXHAUST FAN,Inlet,1
 Non-Parent Node Connection,LAUNDRY_FLR_1 EXHAUST FAN OUTLET NODE,FAN:ZONEEXHAUST,LAUNDRY_FLR_1 EXHAUST FAN,Outlet,1
 Non-Parent Node Connection,LOBBY_FLR_1 EXHAUST FAN NODE,FAN:ZONEEXHAUST,LOBBY_FLR_1 EXHAUST FAN,Inlet,1
 Non-Parent Node Connection,LOBBY_FLR_1 EXHAUST FAN OUTLET NODE,FAN:ZONEEXHAUST,LOBBY_FLR_1 EXHAUST FAN,Outlet,1
 Non-Parent Node Connection,BANQUET_FLR_6 EXHAUST FAN NODE,FAN:ZONEEXHAUST,BANQUET_FLR_6 EXHAUST FAN,Inlet,1
 Non-Parent Node Connection,BANQUET_FLR_6 EXHAUST FAN OUTLET NODE,FAN:ZONEEXHAUST,BANQUET_FLR_6 EXHAUST FAN,Outlet,1
 Non-Parent Node Connection,DINING_FLR_6 EXHAUST FAN NODE,FAN:ZONEEXHAUST,DINING_FLR_6 EXHAUST FAN,Inlet,1
 Non-Parent Node Connection,DINING_FLR_6 EXHAUST FAN OUTLET NODE,FAN:ZONEEXHAUST,DINING_FLR_6 EXHAUST FAN,Outlet,1
 Non-Parent Node Connection,KITCHEN_FLR_6 EXHAUST FAN NODE,FAN:ZONEEXHAUST,KITCHEN_FLR_6 EXHAUST FAN,Inlet,1
 Non-Parent Node Connection,KITCHEN_FLR_6 EXHAUST FAN OUTLET NODE,FAN:ZONEEXHAUST,KITCHEN_FLR_6 EXHAUST FAN,Outlet,1
 Non-Parent Node Connection,ROOM_1_FLR_3 FAN COIL MIXED AIR OUTLET,FAN:ONOFF,ROOM_1_FLR_3 FAN COIL FAN COILFAN_FAN,Inlet,1
 Non-Parent Node Connection,ROOM_1_FLR_3 FAN COIL SUPPLY FAN OUTLET,FAN:ONOFF,ROOM_1_FLR_3 FAN COIL FAN COILFAN_FAN,Outlet,1
 Non-Parent Node Connection,ROOM_2_FLR_3 FAN COIL MIXED AIR OUTLET,FAN:ONOFF,ROOM_2_FLR_3 FAN COIL FAN COILFAN_FAN,Inlet,1
 Non-Parent Node Connection,ROOM_2_FLR_3 FAN COIL SUPPLY FAN OUTLET,FAN:ONOFF,ROOM_2_FLR_3 FAN COIL FAN COILFAN_FAN,Outlet,1
 Non-Parent Node Connection,ROOM_3_MULT19_FLR_3 FAN COIL MIXED AIR OUTLET,FAN:ONOFF,ROOM_3_MULT19_FLR_3 FAN COIL FAN COILFAN_FAN,Inlet,1
 Non-Parent Node Connection,ROOM_3_MULT19_FLR_3 FAN COIL SUPPLY FAN OUTLET,FAN:ONOFF,ROOM_3_MULT19_FLR_3 FAN COIL FAN COILFAN_FAN,Outlet,1
 Non-Parent Node Connection,ROOM_4_MULT19_FLR_3 FAN COIL MIXED AIR OUTLET,FAN:ONOFF,ROOM_4_MULT19_FLR_3 FAN COIL FAN COILFAN_FAN,Inlet,1
 Non-Parent Node Connection,ROOM_4_MULT19_FLR_3 FAN COIL SUPPLY FAN OUTLET,FAN:ONOFF,ROOM_4_MULT19_FLR_3 FAN COIL FAN COILFAN_FAN,Outlet,1
 Non-Parent Node Connection,ROOM_5_FLR_3 FAN COIL MIXED AIR OUTLET,FAN:ONOFF,ROOM_5_FLR_3 FAN COIL FAN COILFAN_FAN,Inlet,1
 Non-Parent Node Connection,ROOM_5_FLR_3 FAN COIL SUPPLY FAN OUTLET,FAN:ONOFF,ROOM_5_FLR_3 FAN COIL FAN COILFAN_FAN,Outlet,1
 Non-Parent Node Connection,ROOM_6_FLR_3 FAN COIL MIXED AIR OUTLET,FAN:ONOFF,ROOM_6_FLR_3 FAN COIL FAN COILFAN_FAN,Inlet,1
 Non-Parent Node Connection,ROOM_6_FLR_3 FAN COIL SUPPLY FAN OUTLET,FAN:ONOFF,ROOM_6_FLR_3 FAN COIL FAN COILFAN_FAN,Outlet,1
 Non-Parent Node Connection,ROOM_1_FLR_6 FAN COIL MIXED AIR OUTLET,FAN:ONOFF,ROOM_1_FLR_6 FAN COIL FAN COILFAN_FAN,Inlet,1
 Non-Parent Node Connection,ROOM_1_FLR_6 FAN COIL SUPPLY FAN OUTLET,FAN:ONOFF,ROOM_1_FLR_6 FAN COIL FAN COILFAN_FAN,Outlet,1
 Non-Parent Node Connection,ROOM_2_FLR_6 FAN COIL MIXED AIR OUTLET,FAN:ONOFF,ROOM_2_FLR_6 FAN COIL FAN COILFAN_FAN,Inlet,1
 Non-Parent Node Connection,ROOM_2_FLR_6 FAN COIL SUPPLY FAN OUTLET,FAN:ONOFF,ROOM_2_FLR_6 FAN COIL FAN COILFAN_FAN,Outlet,1
 Non-Parent Node Connection,ROOM_3_MULT9_FLR_6 FAN COIL MIXED AIR OUTLET,FAN:ONOFF,ROOM_3_MULT9_FLR_6 FAN COIL FAN COILFAN_FAN,Inlet,1
 Non-Parent Node Connection,ROOM_3_MULT9_FLR_6 FAN COIL SUPPLY FAN OUTLET,FAN:ONOFF,ROOM_3_MULT9_FLR_6 FAN COIL FAN COILFAN_FAN,Outlet,1
 Non-Parent Node Connection,VAV WITH REHEAT_OA-VAV WITH REHEAT_COOLCNODE,OUTDOORAIR:MIXER,VAV WITH REHEAT_OAMIXING BOX,Outlet,1
 Non-Parent Node Connection,VAV WITH REHEAT HEAT RECOVERY OUTLET NODE,OUTDOORAIR:MIXER,VAV WITH REHEAT_OAMIXING BOX,Inlet,1
 Non-Parent Node Connection,VAV WITH REHEAT_OARELIEF NODE,OUTDOORAIR:MIXER,VAV WITH REHEAT_OAMIXING BOX,ReliefAir,1
 Non-Parent Node Connection,VAV WITH REHEAT SUPPLY EQUIPMENT INLET NODE,OUTDOORAIR:MIXER,VAV WITH REHEAT_OAMIXING BOX,Inlet,1
 Non-Parent Node Connection,FLR_3_DOAS_OA-FLR_3_DOAS_COOLCNODE,OUTDOORAIR:MIXER,FLR_3_DOAS_OAMIXING BOX,Outlet,1
 Non-Parent Node Connection,FLR_3_DOAS HEAT RECOVERY OUTLET NODE,OUTDOORAIR:MIXER,FLR_3_DOAS_OAMIXING BOX,Inlet,1
 Non-Parent Node Connection,FLR_3_DOAS_OARELIEF NODE,OUTDOORAIR:MIXER,FLR_3_DOAS_OAMIXING BOX,ReliefAir,1
 Non-Parent Node Connection,FLR_3_DOAS SUPPLY EQUIPMENT INLET NODE,OUTDOORAIR:MIXER,FLR_3_DOAS_OAMIXING BOX,Inlet,1
 Non-Parent Node Connection,ROOM_1_FLR_3 FAN COIL MIXED AIR OUTLET,OUTDOORAIR:MIXER,ROOM_1_FLR_3 FAN COIL OA MIXING BOX,Outlet,1
 Non-Parent Node Connection,ROOM_1_FLR_3 FAN COIL OUTSIDE AIR INLET,OUTDOORAIR:MIXER,ROOM_1_FLR_3 FAN COIL OA MIXING BOX,Inlet,1
 Non-Parent Node Connection,ROOM_1_FLR_3 FAN COIL RELIEF AIR OUTLET,OUTDOORAIR:MIXER,ROOM_1_FLR_3 FAN COIL OA MIXING BOX,ReliefAir,1
 Non-Parent Node Connection,ROOM_1_FLR_3 FAN COIL RETURN,OUTDOORAIR:MIXER,ROOM_1_FLR_3 FAN COIL OA MIXING BOX,Inlet,1
 Non-Parent Node Connection,ROOM_2_FLR_3 FAN COIL MIXED AIR OUTLET,OUTDOORAIR:MIXER,ROOM_2_FLR_3 FAN COIL OA MIXING BOX,Outlet,1
 Non-Parent Node Connection,ROOM_2_FLR_3 FAN COIL OUTSIDE AIR INLET,OUTDOORAIR:MIXER,ROOM_2_FLR_3 FAN COIL OA MIXING BOX,Inlet,1
 Non-Parent Node Connection,ROOM_2_FLR_3 FAN COIL RELIEF AIR OUTLET,OUTDOORAIR:MIXER,ROOM_2_FLR_3 FAN COIL OA MIXING BOX,ReliefAir,1
 Non-Parent Node Connection,ROOM_2_FLR_3 FAN COIL RETURN,OUTDOORAIR:MIXER,ROOM_2_FLR_3 FAN COIL OA MIXING BOX,Inlet,1
 Non-Parent Node Connection,ROOM_3_MULT19_FLR_3 FAN COIL MIXED AIR OUTLET,OUTDOORAIR:MIXER,ROOM_3_MULT19_FLR_3 FAN COIL OA MIXING BOX,Outlet,1
 Non-Parent Node Connection,ROOM_3_MULT19_FLR_3 FAN COIL OUTSIDE AIR INLET,OUTDOORAIR:MIXER,ROOM_3_MULT19_FLR_3 FAN COIL OA MIXING BOX,Inlet,1
 Non-Parent Node Connection,ROOM_3_MULT19_FLR_3 FAN COIL RELIEF AIR OUTLET,OUTDOORAIR:MIXER,ROOM_3_MULT19_FLR_3 FAN COIL OA MIXING BOX,ReliefAir,1
 Non-Parent Node Connection,ROOM_3_MULT19_FLR_3 FAN COIL RETURN,OUTDOORAIR:MIXER,ROOM_3_MULT19_FLR_3 FAN COIL OA MIXING BOX,Inlet,1
 Non-Parent Node Connection,ROOM_4_MULT19_FLR_3 FAN COIL MIXED AIR OUTLET,OUTDOORAIR:MIXER,ROOM_4_MULT19_FLR_3 FAN COIL OA MIXING BOX,Outlet,1
 Non-Parent Node Connection,ROOM_4_MULT19_FLR_3 FAN COIL OUTSIDE AIR INLET,OUTDOORAIR:MIXER,ROOM_4_MULT19_FLR_3 FAN COIL OA MIXING BOX,Inlet,1
 Non-Parent Node Connection,ROOM_4_MULT19_FLR_3 FAN COIL RELIEF AIR OUTLET,OUTDOORAIR:MIXER,ROOM_4_MULT19_FLR_3 FAN COIL OA MIXING BOX,ReliefAir,1
 Non-Parent Node Connection,ROOM_4_MULT19_FLR_3 FAN COIL RETURN,OUTDOORAIR:MIXER,ROOM_4_MULT19_FLR_3 FAN COIL OA MIXING BOX,Inlet,1
 Non-Parent Node Connection,ROOM_5_FLR_3 FAN COIL MIXED AIR OUTLET,OUTDOORAIR:MIXER,ROOM_5_FLR_3 FAN COIL OA MIXING BOX,Outlet,1
 Non-Parent Node Connection,ROOM_5_FLR_3 FAN COIL OUTSIDE AIR INLET,OUTDOORAIR:MIXER,ROOM_5_FLR_3 FAN COIL OA MIXING BOX,Inlet,1
 Non-Parent Node Connection,ROOM_5_FLR_3 FAN COIL RELIEF AIR OUTLET,OUTDOORAIR:MIXER,ROOM_5_FLR_3 FAN COIL OA MIXING BOX,ReliefAir,1
 Non-Parent Node Connection,ROOM_5_FLR_3 FAN COIL RETURN,OUTDOORAIR:MIXER,ROOM_5_FLR_3 FAN COIL OA MIXING BOX,Inlet,1
 Non-Parent Node Connection,ROOM_6_FLR_3 FAN COIL MIXED AIR OUTLET,OUTDOORAIR:MIXER,ROOM_6_FLR_3 FAN COIL OA MIXING BOX,Outlet,1
 Non-Parent Node Connection,ROOM_6_FLR_3 FAN COIL OUTSIDE AIR INLET,OUTDOORAIR:MIXER,ROOM_6_FLR_3 FAN COIL OA MIXING BOX,Inlet,1
 Non-Parent Node Connection,ROOM_6_FLR_3 FAN COIL RELIEF AIR OUTLET,OUTDOORAIR:MIXER,ROOM_6_FLR_3 FAN COIL OA MIXING BOX,ReliefAir,1
 Non-Parent Node Connection,ROOM_6_FLR_3 FAN COIL RETURN,OUTDOORAIR:MIXER,ROOM_6_FLR_3 FAN COIL OA MIXING BOX,Inlet,1
 Non-Parent Node Connection,ROOM_1_FLR_6 FAN COIL MIXED AIR OUTLET,OUTDOORAIR:MIXER,ROOM_1_FLR_6 FAN COIL OA MIXING BOX,Outlet,1
 Non-Parent Node Connection,ROOM_1_FLR_6 FAN COIL OUTSIDE AIR INLET,OUTDOORAIR:MIXER,ROOM_1_FLR_6 FAN COIL OA MIXING BOX,Inlet,1
 Non-Parent Node Connection,ROOM_1_FLR_6 FAN COIL RELIEF AIR OUTLET,OUTDOORAIR:MIXER,ROOM_1_FLR_6 FAN COIL OA MIXING BOX,ReliefAir,1
 Non-Parent Node Connection,ROOM_1_FLR_6 FAN COIL RETURN,OUTDOORAIR:MIXER,ROOM_1_FLR_6 FAN COIL OA MIXING BOX,Inlet,1
 Non-Parent Node Connection,ROOM_2_FLR_6 FAN COIL MIXED AIR OUTLET,OUTDOORAIR:MIXER,ROOM_2_FLR_6 FAN COIL OA MIXING BOX,Outlet,1
 Non-Parent Node Connection,ROOM_2_FLR_6 FAN COIL OUTSIDE AIR INLET,OUTDOORAIR:MIXER,ROOM_2_FLR_6 FAN COIL OA MIXING BOX,Inlet,1
 Non-Parent Node Connection,ROOM_2_FLR_6 FAN COIL RELIEF AIR OUTLET,OUTDOORAIR:MIXER,ROOM_2_FLR_6 FAN COIL OA MIXING BOX,ReliefAir,1
 Non-Parent Node Connection,ROOM_2_FLR_6 FAN COIL RETURN,OUTDOORAIR:MIXER,ROOM_2_FLR_6 FAN COIL OA MIXING BOX,Inlet,1
 Non-Parent Node Connection,ROOM_3_MULT9_FLR_6 FAN COIL MIXED AIR OUTLET,OUTDOORAIR:MIXER,ROOM_3_MULT9_FLR_6 FAN COIL OA MIXING BOX,Outlet,1
 Non-Parent Node Connection,ROOM_3_MULT9_FLR_6 FAN COIL OUTSIDE AIR INLET,OUTDOORAIR:MIXER,ROOM_3_MULT9_FLR_6 FAN COIL OA MIXING BOX,Inlet,1
 Non-Parent Node Connection,ROOM_3_MULT9_FLR_6 FAN COIL RELIEF AIR OUTLET,OUTDOORAIR:MIXER,ROOM_3_MULT9_FLR_6 FAN COIL OA MIXING BOX,ReliefAir,1
 Non-Parent Node Connection,ROOM_3_MULT9_FLR_6 FAN COIL RETURN,OUTDOORAIR:MIXER,ROOM_3_MULT9_FLR_6 FAN COIL OA MIXING BOX,Inlet,1
 Non-Parent Node Connection,VAV WITH REHEAT ZONE EQUIPMENT OUTLET NODE,AIRLOOPHVAC:ZONEMIXER,VAV WITH REHEAT RETURN AIR MIXER,Outlet,1
 Non-Parent Node Connection,BASEMENT RETURN AIR NODE,AIRLOOPHVAC:ZONEMIXER,VAV WITH REHEAT RETURN AIR MIXER,Inlet,1
 Non-Parent Node Connection,RETAIL_1_FLR_1 RETURN AIR NODE,AIRLOOPHVAC:ZONEMIXER,VAV WITH REHEAT RETURN AIR MIXER,Inlet,1
 Non-Parent Node Connection,RETAIL_2_FLR_1 RETURN AIR NODE,AIRLOOPHVAC:ZONEMIXER,VAV WITH REHEAT RETURN AIR MIXER,Inlet,1
 Non-Parent Node Connection,MECH_FLR_1 RETURN AIR NODE,AIRLOOPHVAC:ZONEMIXER,VAV WITH REHEAT RETURN AIR MIXER,Inlet,1
 Non-Parent Node Connection,STORAGE_FLR_1 RETURN AIR NODE,AIRLOOPHVAC:ZONEMIXER,VAV WITH REHEAT RETURN AIR MIXER,Inlet,1
 Non-Parent Node Connection,LAUNDRY_FLR_1 RETURN AIR NODE,AIRLOOPHVAC:ZONEMIXER,VAV WITH REHEAT RETURN AIR MIXER,Inlet,1
 Non-Parent Node Connection,CAFE_FLR_1 RETURN AIR NODE,AIRLOOPHVAC:ZONEMIXER,VAV WITH REHEAT RETURN AIR MIXER,Inlet,1
 Non-Parent Node Connection,LOBBY_FLR_1 RETURN AIR NODE,AIRLOOPHVAC:ZONEMIXER,VAV WITH REHEAT RETURN AIR MIXER,Inlet,1
 Non-Parent Node Connection,CORRIDOR_FLR_3 RETURN AIR NODE,AIRLOOPHVAC:ZONEMIXER,VAV WITH REHEAT RETURN AIR MIXER,Inlet,1
 Non-Parent Node Connection,CORRIDOR_FLR_6 RETURN AIR NODE,AIRLOOPHVAC:ZONEMIXER,VAV WITH REHEAT RETURN AIR MIXER,Inlet,1
 Non-Parent Node Connection,BANQUET_FLR_6 RETURN AIR NODE,AIRLOOPHVAC:ZONEMIXER,VAV WITH REHEAT RETURN AIR MIXER,Inlet,1
 Non-Parent Node Connection,DINING_FLR_6 RETURN AIR NODE,AIRLOOPHVAC:ZONEMIXER,VAV WITH REHEAT RETURN AIR MIXER,Inlet,1
 Non-Parent Node Connection,KITCHEN_FLR_6 RETURN AIR NODE,AIRLOOPHVAC:ZONEMIXER,VAV WITH REHEAT RETURN AIR MIXER,Inlet,1
 Non-Parent Node Connection,FLR_3_DOAS ZONE EQUIPMENT OUTLET NODE,AIRLOOPHVAC:ZONEMIXER,FLR_3_DOAS RETURN AIR MIXER,Outlet,1
 Non-Parent Node Connection,ROOM_1_FLR_3 DOAS RETURN NODE,AIRLOOPHVAC:ZONEMIXER,FLR_3_DOAS RETURN AIR MIXER,Inlet,1
 Non-Parent Node Connection,ROOM_2_FLR_3 DOAS RETURN NODE,AIRLOOPHVAC:ZONEMIXER,FLR_3_DOAS RETURN AIR MIXER,Inlet,1
 Non-Parent Node Connection,ROOM_3_MULT19_FLR_3 DOAS RETURN NODE,AIRLOOPHVAC:ZONEMIXER,FLR_3_DOAS RETURN AIR MIXER,Inlet,1
 Non-Parent Node Connection,ROOM_4_MULT19_FLR_3 DOAS RETURN NODE,AIRLOOPHVAC:ZONEMIXER,FLR_3_DOAS RETURN AIR MIXER,Inlet,1
 Non-Parent Node Connection,ROOM_5_FLR_3 DOAS RETURN NODE,AIRLOOPHVAC:ZONEMIXER,FLR_3_DOAS RETURN AIR MIXER,Inlet,1
 Non-Parent Node Connection,ROOM_6_FLR_3 DOAS RETURN NODE,AIRLOOPHVAC:ZONEMIXER,FLR_3_DOAS RETURN AIR MIXER,Inlet,1
 Non-Parent Node Connection,ROOM_1_FLR_6 DOAS RETURN NODE,AIRLOOPHVAC:ZONEMIXER,FLR_3_DOAS RETURN AIR MIXER,Inlet,1
 Non-Parent Node Connection,ROOM_2_FLR_6 DOAS RETURN NODE,AIRLOOPHVAC:ZONEMIXER,FLR_3_DOAS RETURN AIR MIXER,Inlet,1
 Non-Parent Node Connection,ROOM_3_MULT9_FLR_6 DOAS RETURN NODE,AIRLOOPHVAC:ZONEMIXER,FLR_3_DOAS RETURN AIR MIXER,Inlet,1
 Non-Parent Node Connection,VAV WITH REHEAT_OA-VAV WITH REHEAT_COOLCNODE,CONTROLLER:OUTDOORAIR,VAV WITH REHEAT_OA_CONTROLLER,Sensor,1
 Non-Parent Node Connection,VAV WITH REHEAT_OAINLET NODE,CONTROLLER:OUTDOORAIR,VAV WITH REHEAT_OA_CONTROLLER,Actuator,1
 Non-Parent Node Connection,VAV WITH REHEAT_OARELIEF NODE,CONTROLLER:OUTDOORAIR,VAV WITH REHEAT_OA_CONTROLLER,Actuator,1
 Non-Parent Node Connection,VAV WITH REHEAT SUPPLY EQUIPMENT INLET NODE,CONTROLLER:OUTDOORAIR,VAV WITH REHEAT_OA_CONTROLLER,Sensor,1
 Non-Parent Node Connection,FLR_3_DOAS_OA-FLR_3_DOAS_COOLCNODE,CONTROLLER:OUTDOORAIR,FLR_3_DOAS_OA_CONTROLLER,Sensor,1
 Non-Parent Node Connection,FLR_3_DOAS_OAINLET NODE,CONTROLLER:OUTDOORAIR,FLR_3_DOAS_OA_CONTROLLER,Actuator,1
 Non-Parent Node Connection,FLR_3_DOAS_OARELIEF NODE,CONTROLLER:OUTDOORAIR,FLR_3_DOAS_OA_CONTROLLER,Actuator,1
 Non-Parent Node Connection,FLR_3_DOAS SUPPLY EQUIPMENT INLET NODE,CONTROLLER:OUTDOORAIR,FLR_3_DOAS_OA_CONTROLLER,Sensor,1
 Non-Parent Node Connection,VAV WITH REHEAT_OAINLET NODE,HEATEXCHANGER:AIRTOAIR:SENSIBLEANDLATENT,VAV WITH REHEAT OA HEAT RECOVERY,Inlet,1
 Non-Parent Node Connection,VAV WITH REHEAT HEAT RECOVERY OUTLET NODE,HEATEXCHANGER:AIRTOAIR:SENSIBLEANDLATENT,VAV WITH REHEAT OA HEAT RECOVERY,Outlet,1
 Non-Parent Node Connection,VAV WITH REHEAT_OARELIEF NODE,HEATEXCHANGER:AIRTOAIR:SENSIBLEANDLATENT,VAV WITH REHEAT OA HEAT RECOVERY,Inlet,2
 Non-Parent Node Connection,VAV WITH REHEAT HEAT RECOVERY RELIEF OUTLET,HEATEXCHANGER:AIRTOAIR:SENSIBLEANDLATENT,VAV WITH REHEAT OA HEAT RECOVERY,Outlet,2
 Non-Parent Node Connection,FLR_3_DOAS_OAINLET NODE,HEATEXCHANGER:AIRTOAIR:SENSIBLEANDLATENT,FLR_3_DOAS OA HEAT RECOVERY,Inlet,1
 Non-Parent Node Connection,FLR_3_DOAS HEAT RECOVERY OUTLET NODE,HEATEXCHANGER:AIRTOAIR:SENSIBLEANDLATENT,FLR_3_DOAS OA HEAT RECOVERY,Outlet,1
 Non-Parent Node Connection,FLR_3_DOAS_OARELIEF NODE,HEATEXCHANGER:AIRTOAIR:SENSIBLEANDLATENT,FLR_3_DOAS OA HEAT RECOVERY,Inlet,2
 Non-Parent Node Connection,FLR_3_DOAS HEAT RECOVERY RELIEF OUTLET,HEATEXCHANGER:AIRTOAIR:SENSIBLEANDLATENT,FLR_3_DOAS OA HEAT RECOVERY,Outlet,2
 Non-Parent Node Connection,HEATSYS1 SUPPLY INLET NODE,PUMP:VARIABLESPEED,HEATSYS1 PUMP,Inlet,1
 Non-Parent Node Connection,HEATSYS1 PUMP-HEATSYS1 BOILERNODEVIACONNECTOR,PUMP:VARIABLESPEED,HEATSYS1 PUMP,Outlet,1
 Non-Parent Node Connection,COOLSYS1 DEMAND INLET NODE,PUMP:VARIABLESPEED,COOLSYS1 PUMP SECONDARY,Inlet,1
 Non-Parent Node Connection,COOLSYS1 PUMP SECONDARY-COOLSYS1 DEMAND MIXER,PUMP:VARIABLESPEED,COOLSYS1 PUMP SECONDARY,Outlet,1
 Non-Parent Node Connection,COOLSYS1 SUPPLY INLET NODE,PUMP:CONSTANTSPEED,COOLSYS1 PUMP,Inlet,1
 Non-Parent Node Connection,COOLSYS1 PUMP-COOLSYS1 CHILLERNODEVIACONNECTOR,PUMP:CONSTANTSPEED,COOLSYS1 PUMP,Outlet,1
 Non-Parent Node Connection,SWHSYS1 SUPPLY INLET NODE,PUMP:CONSTANTSPEED,SWHSYS1 PUMP,Inlet,1
 Non-Parent Node Connection,SWHSYS1 PUMP-WATER HEATERNODEVIACONNECTOR,PUMP:CONSTANTSPEED,SWHSYS1 PUMP,Outlet,1
