  0
SECTION
  2
ENTITIES
999
DXF created from EnergyPlus
999
Program Version,EnergyPlus, Version 24.2.0-94a887817b, YMD=2025.04.10 17:22
999
Polygon Action,TRIANGULATE3DFACE
999
Color Scheme,Default
999
Text - True North
  0
TEXT
  8
1
  6
Continuous
 62
  3
 10
      -11.00000
 20
        3.00000
 30
        0.10000
 40
 .25
  1
True North
 41
 0.0
  7
MONOTXT
210
0.0
220
0.0
230
1.0
999
Text - Building Title
  0
TEXT
  8
1
  6
Continuous
 62
  3
 10
      -14.00000
 20
       -1.00000
 30
        0.10000
 40
 .4
  1
Building - HotelLarge
 41
 0.0
  7
MONOTXT
210
0.0
220
0.0
230
1.0
999
North Arrow Stem
  0
3DFACE
  8
1
 62
  3
 10
      -10.00000
 20
        3.00000
 30
        0.10000
 11
      -10.00000
 21
        3.00000
 31
        0.00000
 12
      -10.00000
 22
        0.00000
 32
        0.00000
 13
      -10.00000
 23
        0.00000
 33
        0.10000
999
North Arrow Head 1
  0
3DFACE
  8
1
 62
  3
 10
      -10.00000
 20
        3.00000
 30
        0.10000
 11
      -10.00000
 21
        3.00000
 31
        0.00000
 12
      -10.50000
 22
        2.13397
 32
        0.00000
 13
      -10.50000
 23
        2.13397
 33
        0.10000
999
North Arrow Head 2
  0
3DFACE
  8
1
 62
  3
 10
      -10.00000
 20
        3.00000
 30
        0.10000
 11
      -10.00000
 21
        3.00000
 31
        0.00000
 12
       -9.50000
 22
        2.13397
 32
        0.00000
 13
       -9.50000
 23
        2.13397
 33
        0.10000
999
North Arrow Side 1
  0
3DFACE
  8
1
 62
  3
 10
      -10.50000
 20
        4.50000
 30
        0.10000
 11
      -10.50000
 21
        4.50000
 31
        0.00000
 12
      -10.50000
 22
        3.50000
 32
        0.00000
 13
      -10.50000
 23
        3.50000
 33
        0.10000
999
North Arrow Side 2
  0
3DFACE
  8
1
 62
  3
 10
      -10.50000
 20
        4.50000
 30
        0.10000
 11
      -10.50000
 21
        4.50000
 31
        0.00000
 12
       -9.50000
 22
        3.50000
 32
        0.00000
 13
       -9.50000
 23
        3.50000
 33
        0.10000
999
North Arrow Side 3
  0
3DFACE
  8
1
 62
  3
 10
       -9.50000
 20
        4.50000
 30
        0.10000
 11
       -9.50000
 21
        4.50000
 31
        0.00000
 12
       -9.50000
 22
        3.50000
 32
        0.00000
 13
       -9.50000
 23
        3.50000
 33
        0.10000
999
Zone Names
999
Zone=1:BASEMENT
999
Zone=2:RETAIL_1_FLR_1
999
Zone=3:RETAIL_2_FLR_1
999
Zone=4:MECH_FLR_1
999
Zone=5:STORAGE_FLR_1
999
Zone=6:LAUNDRY_FLR_1
999
Zone=7:CAFE_FLR_1
999
Zone=8:LOBBY_FLR_1
999
Zone=9:ROOM_1_FLR_3
999
Zone=10:ROOM_2_FLR_3
999
Zone=11:ROOM_3_MULT19_FLR_3
999
Zone=12:ROOM_4_MULT19_FLR_3
999
Zone=13:ROOM_5_FLR_3
999
Zone=14:ROOM_6_FLR_3
999
Zone=15:CORRIDOR_FLR_3
999
Zone=16:ROOM_1_FLR_6
999
Zone=17:ROOM_2_FLR_6
999
Zone=18:ROOM_3_MULT9_FLR_6
999
Zone=19:BANQUET_FLR_6
999
Zone=20:DINING_FLR_6
999
Zone=21:KITCHEN_FLR_6
999
Zone=22:CORRIDOR_FLR_6
999
BASEMENT:BASEMENT_WALL_NORTH
  0
3DFACE
  8
BASEMENT
 62
 43
 10
       86.56300
 20
       22.86000
 30
        0.00000
 11
       86.56300
 21
       22.86000
 31
       -2.43900
 12
        0.00000
 22
       22.86000
 32
       -2.43900
 13
        0.00000
 23
       22.86000
 33
        0.00000
999
BASEMENT:BASEMENT_WALL_EAST
  0
3DFACE
  8
BASEMENT
 62
 43
 10
       86.56300
 20
        0.00000
 30
        0.00000
 11
       86.56300
 21
        0.00000
 31
       -2.43900
 12
       86.56300
 22
       22.86000
 32
       -2.43900
 13
       86.56300
 23
       22.86000
 33
        0.00000
999
BASEMENT:BASEMENT_WALL_SOUTH
  0
3DFACE
  8
BASEMENT
 62
 43
 10
        0.00000
 20
        0.00000
 30
        0.00000
 11
        0.00000
 21
        0.00000
 31
       -2.43900
 12
       86.56300
 22
        0.00000
 32
       -2.43900
 13
       86.56300
 23
        0.00000
 33
        0.00000
999
BASEMENT:BASEMENT_WALL_WEST
  0
3DFACE
  8
BASEMENT
 62
 43
 10
        0.00000
 20
       22.86000
 30
        0.00000
 11
        0.00000
 21
       22.86000
 31
       -2.43900
 12
        0.00000
 22
        0.00000
 32
       -2.43900
 13
        0.00000
 23
        0.00000
 33
        0.00000
999
BASEMENT:BASEMENT_FLOOR
  0
3DFACE
  8
BASEMENT
 62
  8
 10
       86.56300
 20
       22.86000
 30
       -2.43900
 11
       86.56300
 21
        0.00000
 31
       -2.43900
 12
        0.00000
 22
        0.00000
 32
       -2.43900
 13
        0.00000
 23
       22.86000
 33
       -2.43900
999
BASEMENT:BASEMENT_CEILING_1
  0
3DFACE
  8
BASEMENT
 62
 15
 10
        0.00000
 20
        5.79100
 30
        0.00000
 11
        0.00000
 21
        0.00000
 31
        0.00000
 12
       11.58200
 22
        0.00000
 32
        0.00000
 13
       11.58200
 23
        5.79100
 33
        0.00000
999
BASEMENT:BASEMENT_CEILING_2
  0
3DFACE
  8
BASEMENT
 62
 15
 10
        0.00000
 20
       12.49700
 30
        0.00000
 11
        0.00000
 21
        5.79100
 31
        0.00000
 12
       11.58200
 22
        5.79100
 32
        0.00000
 13
       11.58200
 23
       12.49700
 33
        0.00000
999
BASEMENT:BASEMENT_CEILING_3
  0
3DFACE
  8
BASEMENT
 62
 15
 10
       53.95000
 20
       22.86000
 30
        0.00000
 11
       53.95000
 21
       12.49700
 31
        0.00000
 12
       69.79900
 22
       12.49700
 32
        0.00000
 13
       69.79900
 23
       22.86000
 33
        0.00000
999
BASEMENT:BASEMENT_CEILING_4
  0
3DFACE
  8
BASEMENT
 62
 15
 10
       69.79900
 20
       22.86000
 30
        0.00000
 11
       69.79900
 21
       12.49700
 31
        0.00000
 12
       78.94300
 22
       12.49700
 32
        0.00000
 13
       78.94300
 23
       22.86000
 33
        0.00000
999
BASEMENT:BASEMENT_CEILING_5
  0
3DFACE
  8
BASEMENT
 62
 15
 10
       81.99100
 20
       22.86000
 30
        0.00000
 11
       81.99100
 21
        5.79100
 31
        0.00000
 12
       86.56300
 22
        5.79100
 32
        0.00000
 13
       86.56300
 23
       22.86000
 33
        0.00000
999
BASEMENT:BASEMENT_CEILING_6
  0
3DFACE
  8
BASEMENT
 62
 15
 10
       53.95000
 20
        5.79100
 30
        0.00000
 11
       53.95000
 21
        0.00000
 31
        0.00000
 12
       86.56300
 22
        0.00000
 32
        0.00000
 13
       86.56300
 23
        5.79100
 33
        0.00000
999
BASEMENT:BASEMENT_CEILING_7
  0
3DFACE
  8
BASEMENT
 62
 15
 10
       11.58200
 20
       12.49700
 30
        0.00000
 11
       11.58200
 21
        0.00000
 31
        0.00000
 12
       53.95000
 22
        0.00000
 32
        0.00000
 13
       53.95000
 23
        0.00000
 33
        0.00000
  0
3DFACE
  8
BASEMENT
 62
 15
 10
       53.95000
 20
        0.00000
 30
        0.00000
 11
       53.95000
 21
       22.86000
 31
        0.00000
 12
        0.00000
 22
       22.86000
 32
        0.00000
 13
        0.00000
 23
       22.86000
 33
        0.00000
  0
3DFACE
  8
BASEMENT
 62
 15
 10
        0.00000
 20
       22.86000
 30
        0.00000
 11
        0.00000
 21
       12.49700
 31
        0.00000
 12
       11.58200
 22
       12.49700
 32
        0.00000
 13
       11.58200
 23
       12.49700
 33
        0.00000
  0
3DFACE
  8
BASEMENT
 62
 15
 10
       11.58200
 20
       12.49700
 30
        0.00000
 11
       53.95000
 21
        0.00000
 31
        0.00000
 12
        0.00000
 22
       22.86000
 32
        0.00000
 13
        0.00000
 23
       22.86000
 33
        0.00000
999
BASEMENT:BASEMENT_CEILING_8
  0
3DFACE
  8
BASEMENT
 62
 15
 10
       81.99100
 20
        5.79100
 30
        0.00000
 11
       81.99100
 21
       22.86000
 31
        0.00000
 12
       78.94300
 22
       22.86000
 32
        0.00000
 13
       78.94300
 23
       22.86000
 33
        0.00000
  0
3DFACE
  8
BASEMENT
 62
 15
 10
       81.99100
 20
        5.79100
 30
        0.00000
 11
       78.94300
 21
       22.86000
 31
        0.00000
 12
       78.94300
 22
       12.49700
 32
        0.00000
 13
       78.94300
 23
       12.49700
 33
        0.00000
  0
3DFACE
  8
BASEMENT
 62
 15
 10
       53.95000
 20
        5.79100
 30
        0.00000
 11
       81.99100
 21
        5.79100
 31
        0.00000
 12
       78.94300
 22
       12.49700
 32
        0.00000
 13
       78.94300
 23
       12.49700
 33
        0.00000
  0
3DFACE
  8
BASEMENT
 62
 15
 10
       53.95000
 20
        5.79100
 30
        0.00000
 11
       78.94300
 21
       12.49700
 31
        0.00000
 12
       53.95000
 22
       12.49700
 32
        0.00000
 13
       53.95000
 23
       12.49700
 33
        0.00000
999
RETAIL_1_FLR_1:RETAIL_1_FLR_1_WALL_SOUTH
  0
3DFACE
  8
RETAIL_1_FLR_1
 62
 43
 10
        0.00000
 20
        0.00000
 30
        3.96240
 11
        0.00000
 21
        0.00000
 31
        0.00000
 12
       11.58200
 22
        0.00000
 32
        0.00000
 13
       11.58200
 23
        0.00000
 33
        3.96240
999
RETAIL_1_FLR_1:RETAIL_1_FLR_1_WALL_SOUTH_WINDOW
  0
3DFACE
  8
RETAIL_1_FLR_1
 62
143
 10
        0.33100
 20
        0.00000
 30
        2.28200
 11
        0.33100
 21
        0.00000
 31
        0.15200
 12
       11.25100
 22
        0.00000
 32
        0.15200
 13
       11.25100
 23
        0.00000
 33
        2.28200
999
RETAIL_1_FLR_1:RETAIL_1_FLR_1_WALL_WEST
  0
3DFACE
  8
RETAIL_1_FLR_1
 62
 43
 10
        0.00000
 20
        5.79100
 30
        3.96240
 11
        0.00000
 21
        5.79100
 31
        0.00000
 12
        0.00000
 22
        0.00000
 32
        0.00000
 13
        0.00000
 23
        0.00000
 33
        3.96240
999
RETAIL_1_FLR_1:RETAIL_1_FLR_1_WALL_NORTH
  0
3DFACE
  8
RETAIL_1_FLR_1
 62
 43
 10
       11.58200
 20
        5.79100
 30
        3.96240
 11
       11.58200
 21
        5.79100
 31
        0.00000
 12
        0.00000
 22
        5.79100
 32
        0.00000
 13
        0.00000
 23
        5.79100
 33
        3.96240
999
RETAIL_1_FLR_1:RETAIL_1_FLR_1_WALL_EAST
  0
3DFACE
  8
RETAIL_1_FLR_1
 62
 43
 10
       11.58200
 20
        0.00000
 30
        3.96240
 11
       11.58200
 21
        0.00000
 31
        0.00000
 12
       11.58200
 22
        5.79100
 32
        0.00000
 13
       11.58200
 23
        5.79100
 33
        3.96240
999
RETAIL_1_FLR_1:RETAIL_1_FLR_1_FLOOR
  0
3DFACE
  8
RETAIL_1_FLR_1
 62
  8
 10
       11.58200
 20
        5.79100
 30
        0.00000
 11
       11.58200
 21
        0.00000
 31
        0.00000
 12
        0.00000
 22
        0.00000
 32
        0.00000
 13
        0.00000
 23
        5.79100
 33
        0.00000
999
RETAIL_1_FLR_1:RETAIL_1_FLR_1_CEILING
  0
3DFACE
  8
RETAIL_1_FLR_1
 62
 15
 10
        0.00000
 20
        5.79100
 30
        3.96240
 11
        0.00000
 21
        0.00000
 31
        3.96240
 12
       11.58200
 22
        0.00000
 32
        3.96240
 13
       11.58200
 23
        5.79100
 33
        3.96240
999
RETAIL_2_FLR_1:RETAIL_2_FLR_1_WALL_WEST
  0
3DFACE
  8
RETAIL_2_FLR_1
 62
 43
 10
        0.00000
 20
       12.49700
 30
        3.96240
 11
        0.00000
 21
       12.49700
 31
        0.00000
 12
        0.00000
 22
        5.79100
 32
        0.00000
 13
        0.00000
 23
        5.79100
 33
        3.96240
999
RETAIL_2_FLR_1:RETAIL_2_FLR_1_WALL_WEST_DOOR
  0
3DFACE
  8
RETAIL_2_FLR_1
 62
 45
 10
        0.00000
 20
       10.28358
 30
        2.13360
 11
        0.00000
 21
       10.28358
 31
        0.00000
 12
        0.00000
 22
        9.36918
 32
        0.00000
 13
        0.00000
 23
        9.36918
 33
        2.13360
999
RETAIL_2_FLR_1:RETAIL_2_FLR_1_WALL_SOUTH
  0
3DFACE
  8
RETAIL_2_FLR_1
 62
 43
 10
        0.00000
 20
        5.79100
 30
        3.96240
 11
        0.00000
 21
        5.79100
 31
        0.00000
 12
       11.58200
 22
        5.79100
 32
        0.00000
 13
       11.58200
 23
        5.79100
 33
        3.96240
999
RETAIL_2_FLR_1:RETAIL_2_FLR_1_WALL_NORTH
  0
3DFACE
  8
RETAIL_2_FLR_1
 62
 43
 10
       11.58200
 20
       12.49700
 30
        3.96240
 11
       11.58200
 21
       12.49700
 31
        0.00000
 12
        0.00000
 22
       12.49700
 32
        0.00000
 13
        0.00000
 23
       12.49700
 33
        3.96240
999
RETAIL_2_FLR_1:RETAIL_2_FLR_1_WALL_EAST
  0
3DFACE
  8
RETAIL_2_FLR_1
 62
 43
 10
       11.58200
 20
        5.79100
 30
        3.96240
 11
       11.58200
 21
        5.79100
 31
        0.00000
 12
       11.58200
 22
       12.49700
 32
        0.00000
 13
       11.58200
 23
       12.49700
 33
        3.96240
999
RETAIL_2_FLR_1:RETAIL_2_FLR_1_FLOOR
  0
3DFACE
  8
RETAIL_2_FLR_1
 62
  8
 10
       11.58200
 20
       12.49700
 30
        0.00000
 11
       11.58200
 21
        5.79100
 31
        0.00000
 12
        0.00000
 22
        5.79100
 32
        0.00000
 13
        0.00000
 23
       12.49700
 33
        0.00000
999
RETAIL_2_FLR_1:RETAIL_2_FLR_1_CEILING
  0
3DFACE
  8
RETAIL_2_FLR_1
 62
 15
 10
        0.00000
 20
       12.49700
 30
        3.96240
 11
        0.00000
 21
        5.79100
 31
        3.96240
 12
       11.58200
 22
        5.79100
 32
        3.96240
 13
       11.58200
 23
       12.49700
 33
        3.96240
999
MECH_FLR_1:MECH_FLR_1_WALL_NORTH
  0
3DFACE
  8
MECH_FLR_1
 62
 43
 10
       69.79900
 20
       22.86000
 30
        3.96240
 11
       69.79900
 21
       22.86000
 31
        0.00000
 12
       53.95000
 22
       22.86000
 32
        0.00000
 13
       53.95000
 23
       22.86000
 33
        3.96240
999
MECH_FLR_1:MECH_FLR_1_WALL_EAST
  0
3DFACE
  8
MECH_FLR_1
 62
 43
 10
       69.79900
 20
       12.49700
 30
        3.96240
 11
       69.79900
 21
       12.49700
 31
        0.00000
 12
       69.79900
 22
       22.86000
 32
        0.00000
 13
       69.79900
 23
       22.86000
 33
        3.96240
999
MECH_FLR_1:MECH_FLR_1_WALL_SOUTH
  0
3DFACE
  8
MECH_FLR_1
 62
 43
 10
       53.95000
 20
       12.49700
 30
        3.96240
 11
       53.95000
 21
       12.49700
 31
        0.00000
 12
       69.79900
 22
       12.49700
 32
        0.00000
 13
       69.79900
 23
       12.49700
 33
        3.96240
999
MECH_FLR_1:MECH_FLR_1_WALL_WEST
  0
3DFACE
  8
MECH_FLR_1
 62
 43
 10
       53.95000
 20
       22.86000
 30
        3.96240
 11
       53.95000
 21
       22.86000
 31
        0.00000
 12
       53.95000
 22
       12.49700
 32
        0.00000
 13
       53.95000
 23
       12.49700
 33
        3.96240
999
MECH_FLR_1:MECH_FLR_1_FLOOR
  0
3DFACE
  8
MECH_FLR_1
 62
  8
 10
       69.79900
 20
       22.86000
 30
        0.00000
 11
       69.79900
 21
       12.49700
 31
        0.00000
 12
       53.95000
 22
       12.49700
 32
        0.00000
 13
       53.95000
 23
       22.86000
 33
        0.00000
999
MECH_FLR_1:MECH_FLR_1_CEILING
  0
3DFACE
  8
MECH_FLR_1
 62
 15
 10
       53.95000
 20
       22.86000
 30
        3.96240
 11
       53.95000
 21
       12.49700
 31
        3.96240
 12
       69.79900
 22
       12.49700
 32
        3.96240
 13
       69.79900
 23
       22.86000
 33
        3.96240
999
STORAGE_FLR_1:STORAGE_FLR_1_WALL_NORTH
  0
3DFACE
  8
STORAGE_FLR_1
 62
 43
 10
       78.94300
 20
       22.86000
 30
        3.96240
 11
       78.94300
 21
       22.86000
 31
        0.00000
 12
       69.79900
 22
       22.86000
 32
        0.00000
 13
       69.79900
 23
       22.86000
 33
        3.96240
999
STORAGE_FLR_1:STORAGE_FLR_1_WALL_NORTH_ROLLDOOR
  0
3DFACE
  8
STORAGE_FLR_1
 62
 45
 10
       76.37182
 20
       22.86000
 30
        2.43840
 11
       76.37182
 21
       22.86000
 31
        0.00000
 12
       73.32382
 22
       22.86000
 32
        0.00000
 13
       73.32382
 23
       22.86000
 33
        2.43840
999
STORAGE_FLR_1:STORAGE_FLR_1_WALL_EAST
  0
3DFACE
  8
STORAGE_FLR_1
 62
 43
 10
       78.94300
 20
       12.49700
 30
        3.96240
 11
       78.94300
 21
       12.49700
 31
        0.00000
 12
       78.94300
 22
       22.86000
 32
        0.00000
 13
       78.94300
 23
       22.86000
 33
        3.96240
999
STORAGE_FLR_1:STORAGE_FLR_1_WALL_SOUTH
  0
3DFACE
  8
STORAGE_FLR_1
 62
 43
 10
       69.79900
 20
       12.49700
 30
        3.96240
 11
       69.79900
 21
       12.49700
 31
        0.00000
 12
       78.94300
 22
       12.49700
 32
        0.00000
 13
       78.94300
 23
       12.49700
 33
        3.96240
999
STORAGE_FLR_1:STORAGE_FLR_1_WALL_WEST
  0
3DFACE
  8
STORAGE_FLR_1
 62
 43
 10
       69.79900
 20
       22.86000
 30
        3.96240
 11
       69.79900
 21
       22.86000
 31
        0.00000
 12
       69.79900
 22
       12.49700
 32
        0.00000
 13
       69.79900
 23
       12.49700
 33
        3.96240
999
STORAGE_FLR_1:STORAGE_FLR_1_FLOOR
  0
3DFACE
  8
STORAGE_FLR_1
 62
  8
 10
       78.94300
 20
       22.86000
 30
        0.00000
 11
       78.94300
 21
       12.49700
 31
        0.00000
 12
       69.79900
 22
       12.49700
 32
        0.00000
 13
       69.79900
 23
       22.86000
 33
        0.00000
999
STORAGE_FLR_1:STORAGE_FLR_1_CEILING
  0
3DFACE
  8
STORAGE_FLR_1
 62
 15
 10
       69.79900
 20
       22.86000
 30
        3.96240
 11
       69.79900
 21
       12.49700
 31
        3.96240
 12
       78.94300
 22
       12.49700
 32
        3.96240
 13
       78.94300
 23
       22.86000
 33
        3.96240
999
LAUNDRY_FLR_1:LAUNDRY_FLR_1_WALL_NORTH
  0
3DFACE
  8
LAUNDRY_FLR_1
 62
 43
 10
       86.56300
 20
       22.86000
 30
        3.96240
 11
       86.56300
 21
       22.86000
 31
        0.00000
 12
       81.99100
 22
       22.86000
 32
        0.00000
 13
       81.99100
 23
       22.86000
 33
        3.96240
999
LAUNDRY_FLR_1:LAUNDRY_FLR_1_WALL_EAST
  0
3DFACE
  8
LAUNDRY_FLR_1
 62
 43
 10
       86.56300
 20
        5.79100
 30
        3.96240
 11
       86.56300
 21
        5.79100
 31
        0.00000
 12
       86.56300
 22
       22.86000
 32
        0.00000
 13
       86.56300
 23
       22.86000
 33
        3.96240
999
LAUNDRY_FLR_1:LAUNDRY_FLR_1_WALL_EAST_DOOR
  0
3DFACE
  8
LAUNDRY_FLR_1
 62
 45
 10
       86.56300
 20
        8.36102
 30
        2.13360
 11
       86.56300
 21
        8.36102
 31
        0.00000
 12
       86.56300
 22
        9.27542
 32
        0.00000
 13
       86.56300
 23
        9.27542
 33
        2.13360
999
LAUNDRY_FLR_1:LAUNDRY_FLR_1_WALL_SOUTH
  0
3DFACE
  8
LAUNDRY_FLR_1
 62
 43
 10
       81.99100
 20
        5.79100
 30
        3.96240
 11
       81.99100
 21
        5.79100
 31
        0.00000
 12
       86.56300
 22
        5.79100
 32
        0.00000
 13
       86.56300
 23
        5.79100
 33
        3.96240
999
LAUNDRY_FLR_1:LAUNDRY_FLR_1_WALL_WEST
  0
3DFACE
  8
LAUNDRY_FLR_1
 62
 43
 10
       81.99100
 20
       22.86000
 30
        3.96240
 11
       81.99100
 21
       22.86000
 31
        0.00000
 12
       81.99100
 22
        5.79100
 32
        0.00000
 13
       81.99100
 23
        5.79100
 33
        3.96240
999
LAUNDRY_FLR_1:LAUNDRY_FLR_1_FLOOR
  0
3DFACE
  8
LAUNDRY_FLR_1
 62
  8
 10
       86.56300
 20
       22.86000
 30
        0.00000
 11
       86.56300
 21
        5.79100
 31
        0.00000
 12
       81.99100
 22
        5.79100
 32
        0.00000
 13
       81.99100
 23
       22.86000
 33
        0.00000
999
LAUNDRY_FLR_1:LAUNDRY_FLR_1_CEILING
  0
3DFACE
  8
LAUNDRY_FLR_1
 62
 15
 10
       81.99100
 20
       22.86000
 30
        3.96240
 11
       81.99100
 21
        5.79100
 31
        3.96240
 12
       86.56300
 22
        5.79100
 32
        3.96240
 13
       86.56300
 23
       22.86000
 33
        3.96240
999
CAFE_FLR_1:CAFE_FLR_1_WALL_EAST
  0
3DFACE
  8
CAFE_FLR_1
 62
 43
 10
       86.56300
 20
        0.00000
 30
        3.96240
 11
       86.56300
 21
        0.00000
 31
        0.00000
 12
       86.56300
 22
        5.79100
 32
        0.00000
 13
       86.56300
 23
        5.79100
 33
        3.96240
999
CAFE_FLR_1:CAFE_FLR_1_WALL_EAST_DOOR
  0
3DFACE
  8
CAFE_FLR_1
 62
 45
 10
       86.56300
 20
        2.89550
 30
        2.13360
 11
       86.56300
 21
        2.89550
 31
        0.00000
 12
       86.56300
 22
        3.80990
 32
        0.00000
 13
       86.56300
 23
        3.80990
 33
        2.13360
999
CAFE_FLR_1:CAFE_FLR_1_WALL_SOUTH
  0
3DFACE
  8
CAFE_FLR_1
 62
 43
 10
       53.95000
 20
        0.00000
 30
        3.96240
 11
       53.95000
 21
        0.00000
 31
        0.00000
 12
       86.56300
 22
        0.00000
 32
        0.00000
 13
       86.56300
 23
        0.00000
 33
        3.96240
999
CAFE_FLR_1:CAFE_FLR_1_WALL_SOUTH_WINDOW
  0
3DFACE
  8
CAFE_FLR_1
 62
143
 10
       54.88100
 20
        0.00000
 30
        2.28200
 11
       54.88100
 21
        0.00000
 31
        0.15200
 12
       85.63100
 22
        0.00000
 32
        0.15200
 13
       85.63100
 23
        0.00000
 33
        2.28200
999
CAFE_FLR_1:CAFE_FLR_1_WALL_1_NORTH
  0
3DFACE
  8
CAFE_FLR_1
 62
 43
 10
       81.99100
 20
        5.79100
 30
        3.96240
 11
       81.99100
 21
        5.79100
 31
        0.00000
 12
       53.95000
 22
        5.79100
 32
        0.00000
 13
       53.95000
 23
        5.79100
 33
        3.96240
999
CAFE_FLR_1:CAFE_FLR_1_WALL_2_NORTH
  0
3DFACE
  8
CAFE_FLR_1
 62
 43
 10
       86.56300
 20
        5.79100
 30
        3.96240
 11
       86.56300
 21
        5.79100
 31
        0.00000
 12
       81.99100
 22
        5.79100
 32
        0.00000
 13
       81.99100
 23
        5.79100
 33
        3.96240
999
CAFE_FLR_1:CAFE_FLR_1_WALL_WEST
  0
3DFACE
  8
CAFE_FLR_1
 62
 43
 10
       53.95000
 20
        5.79100
 30
        3.96240
 11
       53.95000
 21
        5.79100
 31
        0.00000
 12
       53.95000
 22
        0.00000
 32
        0.00000
 13
       53.95000
 23
        0.00000
 33
        3.96240
999
CAFE_FLR_1:CAFE_FLR_1_FLOOR
  0
3DFACE
  8
CAFE_FLR_1
 62
  8
 10
       86.56300
 20
        5.79100
 30
        0.00000
 11
       86.56300
 21
        0.00000
 31
        0.00000
 12
       53.95000
 22
        0.00000
 32
        0.00000
 13
       53.95000
 23
        5.79100
 33
        0.00000
999
CAFE_FLR_1:CAFE_FLR_1_CEILING
  0
3DFACE
  8
CAFE_FLR_1
 62
 15
 10
       53.95000
 20
        5.79100
 30
        3.96240
 11
       53.95000
 21
        0.00000
 31
        3.96240
 12
       86.56300
 22
        0.00000
 32
        3.96240
 13
       86.56300
 23
        5.79100
 33
        3.96240
999
LOBBY_FLR_1:LOBBY_FLR_1_WALL_1_NORTH
  0
3DFACE
  8
LOBBY_FLR_1
 62
 43
 10
       53.95000
 20
       22.86000
 30
        3.96240
 11
       53.95000
 21
       22.86000
 31
        0.00000
 12
        0.00000
 22
       22.86000
 32
        0.00000
 13
        0.00000
 23
       22.86000
 33
        3.96240
999
LOBBY_FLR_1:LOBBY_FLR_1_WALL_1_NORTH_DOOR1
  0
3DFACE
  8
LOBBY_FLR_1
 62
 45
 10
       49.00322
 20
       22.86000
 30
        2.13360
 11
       49.00322
 21
       22.86000
 31
        0.00000
 12
       48.08882
 22
       22.86000
 32
        0.00000
 13
       48.08882
 23
       22.86000
 33
        2.13360
999
LOBBY_FLR_1:LOBBY_FLR_1_WALL_1_NORTH_DOOR2
  0
3DFACE
  8
LOBBY_FLR_1
 62
 45
 10
        8.99489
 20
       22.86000
 30
        2.13360
 11
        8.99489
 21
       22.86000
 31
        0.00000
 12
        8.08049
 22
       22.86000
 32
        0.00000
 13
        8.08049
 23
       22.86000
 33
        2.13360
999
LOBBY_FLR_1:LOBBY_FLR_1_WALL_2_NORTH
  0
3DFACE
  8
LOBBY_FLR_1
 62
 43
 10
       81.99100
 20
       22.86000
 30
        3.96240
 11
       81.99100
 21
       22.86000
 31
        0.00000
 12
       78.94300
 22
       22.86000
 32
        0.00000
 13
       78.94300
 23
       22.86000
 33
        3.96240
999
LOBBY_FLR_1:LOBBY_FLR_1_WALL_1_SOUTH
  0
3DFACE
  8
LOBBY_FLR_1
 62
 43
 10
       11.58200
 20
        0.00000
 30
        3.96240
 11
       11.58200
 21
        0.00000
 31
        0.00000
 12
       53.95000
 22
        0.00000
 32
        0.00000
 13
       53.95000
 23
        0.00000
 33
        3.96240
999
LOBBY_FLR_1:LOBBY_FLR_1_WALL_SOUTH_WINDOW
  0
3DFACE
  8
LOBBY_FLR_1
 62
143
 10
       12.79300
 20
        0.00000
 30
        2.28200
 11
       12.79300
 21
        0.00000
 31
        0.15200
 12
       52.73900
 22
        0.00000
 32
        0.15200
 13
       52.73900
 23
        0.00000
 33
        2.28200
999
LOBBY_FLR_1:LOBBY_FLR_1_WALL_1_WEST
  0
3DFACE
  8
LOBBY_FLR_1
 62
 43
 10
        0.00000
 20
       22.86000
 30
        3.96240
 11
        0.00000
 21
       22.86000
 31
        0.00000
 12
        0.00000
 22
       12.49700
 32
        0.00000
 13
        0.00000
 23
       12.49700
 33
        3.96240
999
LOBBY_FLR_1:LOBBY_FLR_1_WALL_2_SOUTH
  0
3DFACE
  8
LOBBY_FLR_1
 62
 43
 10
        0.00000
 20
       12.49700
 30
        3.96240
 11
        0.00000
 21
       12.49700
 31
        0.00000
 12
       11.58200
 22
       12.49700
 32
        0.00000
 13
       11.58200
 23
       12.49700
 33
        3.96240
999
LOBBY_FLR_1:LOBBY_FLR_1_WALL_3_SOUTH
  0
3DFACE
  8
LOBBY_FLR_1
 62
 43
 10
       53.95000
 20
        5.79100
 30
        3.96240
 11
       53.95000
 21
        5.79100
 31
        0.00000
 12
       81.99100
 22
        5.79100
 32
        0.00000
 13
       81.99100
 23
        5.79100
 33
        3.96240
999
LOBBY_FLR_1:LOBBY_FLR_1_WALL_2_WEST
  0
3DFACE
  8
LOBBY_FLR_1
 62
 43
 10
       11.58200
 20
        5.79100
 30
        3.96240
 11
       11.58200
 21
        5.79100
 31
        0.00000
 12
       11.58200
 22
        0.00000
 32
        0.00000
 13
       11.58200
 23
        0.00000
 33
        3.96240
999
LOBBY_FLR_1:LOBBY_FLR_1_WALL_3_WEST
  0
3DFACE
  8
LOBBY_FLR_1
 62
 43
 10
       11.58200
 20
       12.49700
 30
        3.96240
 11
       11.58200
 21
       12.49700
 31
        0.00000
 12
       11.58200
 22
        5.79100
 32
        0.00000
 13
       11.58200
 23
        5.79100
 33
        3.96240
999
LOBBY_FLR_1:LOBBY_FLR_1_WALL_4_WEST
  0
3DFACE
  8
LOBBY_FLR_1
 62
 43
 10
       78.94300
 20
       22.86000
 30
        3.96240
 11
       78.94300
 21
       22.86000
 31
        0.00000
 12
       78.94300
 22
       12.49700
 32
        0.00000
 13
       78.94300
 23
       12.49700
 33
        3.96240
999
LOBBY_FLR_1:LOBBY_FLR_1_WALL_3_NORTH
  0
3DFACE
  8
LOBBY_FLR_1
 62
 43
 10
       69.79900
 20
       12.49700
 30
        3.96240
 11
       69.79900
 21
       12.49700
 31
        0.00000
 12
       53.95000
 22
       12.49700
 32
        0.00000
 13
       53.95000
 23
       12.49700
 33
        3.96240
999
LOBBY_FLR_1:LOBBY_FLR_1_WALL_4_NORTH
  0
3DFACE
  8
LOBBY_FLR_1
 62
 43
 10
       78.94300
 20
       12.49700
 30
        3.96240
 11
       78.94300
 21
       12.49700
 31
        0.00000
 12
       69.79900
 22
       12.49700
 32
        0.00000
 13
       69.79900
 23
       12.49700
 33
        3.96240
999
LOBBY_FLR_1:LOBBY_FLR_1_WALL_1_EAST
  0
3DFACE
  8
LOBBY_FLR_1
 62
 43
 10
       53.95000
 20
       12.49700
 30
        3.96240
 11
       53.95000
 21
       12.49700
 31
        0.00000
 12
       53.95000
 22
       22.86000
 32
        0.00000
 13
       53.95000
 23
       22.86000
 33
        3.96240
999
LOBBY_FLR_1:LOBBY_FLR_1_WALL_2_EAST
  0
3DFACE
  8
LOBBY_FLR_1
 62
 43
 10
       53.95000
 20
        0.00000
 30
        3.96240
 11
       53.95000
 21
        0.00000
 31
        0.00000
 12
       53.95000
 22
        5.79100
 32
        0.00000
 13
       53.95000
 23
        5.79100
 33
        3.96240
999
LOBBY_FLR_1:LOBBY_FLR_1_WALL_3_EAST
  0
3DFACE
  8
LOBBY_FLR_1
 62
 43
 10
       81.99100
 20
        5.79100
 30
        3.96240
 11
       81.99100
 21
        5.79100
 31
        0.00000
 12
       81.99100
 22
       22.86000
 32
        0.00000
 13
       81.99100
 23
       22.86000
 33
        3.96240
999
LOBBY_FLR_1:LOBBY_FLR_1_FLOOR_1
  0
3DFACE
  8
LOBBY_FLR_1
 62
  8
 10
        0.00000
 20
       12.49700
 30
        0.00000
 11
        0.00000
 21
       22.86000
 31
        0.00000
 12
       53.95000
 22
       22.86000
 32
        0.00000
 13
       53.95000
 23
       22.86000
 33
        0.00000
  0
3DFACE
  8
LOBBY_FLR_1
 62
  8
 10
       53.95000
 20
       22.86000
 30
        0.00000
 11
       53.95000
 21
        0.00000
 31
        0.00000
 12
       11.58200
 22
        0.00000
 32
        0.00000
 13
       11.58200
 23
        0.00000
 33
        0.00000
  0
3DFACE
  8
LOBBY_FLR_1
 62
  8
 10
       53.95000
 20
       22.86000
 30
        0.00000
 11
       11.58200
 21
        0.00000
 31
        0.00000
 12
       11.58200
 22
       12.49700
 32
        0.00000
 13
       11.58200
 23
       12.49700
 33
        0.00000
  0
3DFACE
  8
LOBBY_FLR_1
 62
  8
 10
        0.00000
 20
       12.49700
 30
        0.00000
 11
       53.95000
 21
       22.86000
 31
        0.00000
 12
       11.58200
 22
       12.49700
 32
        0.00000
 13
       11.58200
 23
       12.49700
 33
        0.00000
999
LOBBY_FLR_1:LOBBY_FLR_1_FLOOR_2
  0
3DFACE
  8
LOBBY_FLR_1
 62
  8
 10
       78.94300
 20
       12.49700
 30
        0.00000
 11
       78.94300
 21
       22.86000
 31
        0.00000
 12
       81.99100
 22
       22.86000
 32
        0.00000
 13
       81.99100
 23
       22.86000
 33
        0.00000
  0
3DFACE
  8
LOBBY_FLR_1
 62
  8
 10
       81.99100
 20
        5.79100
 30
        0.00000
 11
       53.95000
 21
        5.79100
 31
        0.00000
 12
       53.95000
 22
       12.49700
 32
        0.00000
 13
       53.95000
 23
       12.49700
 33
        0.00000
  0
3DFACE
  8
LOBBY_FLR_1
 62
  8
 10
       81.99100
 20
        5.79100
 30
        0.00000
 11
       53.95000
 21
       12.49700
 31
        0.00000
 12
       78.94300
 22
       12.49700
 32
        0.00000
 13
       78.94300
 23
       12.49700
 33
        0.00000
  0
3DFACE
  8
LOBBY_FLR_1
 62
  8
 10
       78.94300
 20
       12.49700
 30
        0.00000
 11
       81.99100
 21
       22.86000
 31
        0.00000
 12
       81.99100
 22
        5.79100
 32
        0.00000
 13
       81.99100
 23
        5.79100
 33
        0.00000
999
LOBBY_FLR_1:LOBBY_FLR_1_CEILING_1
  0
3DFACE
  8
LOBBY_FLR_1
 62
 15
 10
       11.58200
 20
       12.49700
 30
        3.96240
 11
       11.58200
 21
        5.79100
 31
        3.96240
 12
       81.99100
 22
        5.79100
 32
        3.96240
 13
       81.99100
 23
        5.79100
 33
        3.96240
  0
3DFACE
  8
LOBBY_FLR_1
 62
 15
 10
       81.99100
 20
        5.79100
 30
        3.96240
 11
       81.99100
 21
       22.86000
 31
        3.96240
 12
       78.94300
 22
       22.86000
 32
        3.96240
 13
       78.94300
 23
       22.86000
 33
        3.96240
  0
3DFACE
  8
LOBBY_FLR_1
 62
 15
 10
       81.99100
 20
        5.79100
 30
        3.96240
 11
       78.94300
 21
       22.86000
 31
        3.96240
 12
       78.94300
 22
       12.49700
 32
        3.96240
 13
       78.94300
 23
       12.49700
 33
        3.96240
  0
3DFACE
  8
LOBBY_FLR_1
 62
 15
 10
       81.99100
 20
        5.79100
 30
        3.96240
 11
       78.94300
 21
       12.49700
 31
        3.96240
 12
       53.95000
 22
       12.49700
 32
        3.96240
 13
       53.95000
 23
       12.49700
 33
        3.96240
  0
3DFACE
  8
LOBBY_FLR_1
 62
 15
 10
       53.95000
 20
       12.49700
 30
        3.96240
 11
       53.95000
 21
       22.86000
 31
        3.96240
 12
        0.00000
 22
       22.86000
 32
        3.96240
 13
        0.00000
 23
       22.86000
 33
        3.96240
  0
3DFACE
  8
LOBBY_FLR_1
 62
 15
 10
       81.99100
 20
        5.79100
 30
        3.96240
 11
       53.95000
 21
       12.49700
 31
        3.96240
 12
        0.00000
 22
       22.86000
 32
        3.96240
 13
        0.00000
 23
       22.86000
 33
        3.96240
  0
3DFACE
  8
LOBBY_FLR_1
 62
 15
 10
        0.00000
 20
       22.86000
 30
        3.96240
 11
        0.00000
 21
       12.49700
 31
        3.96240
 12
       11.58200
 22
       12.49700
 32
        3.96240
 13
       11.58200
 23
       12.49700
 33
        3.96240
  0
3DFACE
  8
LOBBY_FLR_1
 62
 15
 10
       11.58200
 20
       12.49700
 30
        3.96240
 11
       81.99100
 21
        5.79100
 31
        3.96240
 12
        0.00000
 22
       22.86000
 32
        3.96240
 13
        0.00000
 23
       22.86000
 33
        3.96240
999
LOBBY_FLR_1:LOBBY_FLR_1_CEILING_2
  0
3DFACE
  8
LOBBY_FLR_1
 62
 15
 10
       11.58200
 20
        5.79100
 30
        3.96240
 11
       11.58200
 21
        0.00000
 31
        3.96240
 12
       53.95000
 22
        0.00000
 32
        3.96240
 13
       53.95000
 23
        5.79100
 33
        3.96240
999
ROOM_1_FLR_3:ROOM_1_FLR_3_WALL_SOUTH
  0
3DFACE
  8
ROOM_1_FLR_3
 62
 43
 10
        0.00000
 20
        5.79100
 30
       10.05600
 11
        0.00000
 21
        5.79100
 31
        7.00800
 12
        4.57200
 22
        5.79100
 32
        7.00800
 13
        4.57200
 23
        5.79100
 33
       10.05600
999
ROOM_1_FLR_3:ROOM_1_FLR_3_WALL_SOUTH_WINDOW
  0
3DFACE
  8
ROOM_1_FLR_3
 62
143
 10
        0.40000
 20
        5.79100
 30
        9.33300
 11
        0.40000
 21
        5.79100
 31
        8.11376
 12
        4.17200
 22
        5.79100
 32
        8.11376
 13
        4.17200
 23
        5.79100
 33
        9.33300
999
ROOM_1_FLR_3:ROOM_1_FLR_3_WALL_WEST
  0
3DFACE
  8
ROOM_1_FLR_3
 62
 43
 10
        0.00000
 20
       14.32600
 30
       10.05600
 11
        0.00000
 21
       14.32600
 31
        7.00800
 12
        0.00000
 22
        5.79100
 32
        7.00800
 13
        0.00000
 23
        5.79100
 33
       10.05600
999
ROOM_1_FLR_3:ROOM_1_FLR_3_WALL_WEST_WINDOW
  0
3DFACE
  8
ROOM_1_FLR_3
 62
143
 10
        0.00000
 20
       13.57900
 30
        9.33300
 11
        0.00000
 21
       13.57900
 31
        8.11376
 12
        0.00000
 22
        6.53800
 32
        8.11376
 13
        0.00000
 23
        6.53800
 33
        9.33300
999
ROOM_1_FLR_3:ROOM_1_FLR_3_WALL_NORTH
  0
3DFACE
  8
ROOM_1_FLR_3
 62
 43
 10
        4.57200
 20
       14.32600
 30
       10.05600
 11
        4.57200
 21
       14.32600
 31
        7.00800
 12
        0.00000
 22
       14.32600
 32
        7.00800
 13
        0.00000
 23
       14.32600
 33
       10.05600
999
ROOM_1_FLR_3:ROOM_1_FLR_3_WALL_EAST
  0
3DFACE
  8
ROOM_1_FLR_3
 62
 43
 10
        4.57200
 20
        5.79100
 30
       10.05600
 11
        4.57200
 21
        5.79100
 31
        7.00800
 12
        4.57200
 22
       14.32600
 32
        7.00800
 13
        4.57200
 23
       14.32600
 33
       10.05600
999
ROOM_1_FLR_3:ROOM_1_FLR_3_FLOOR
  0
3DFACE
  8
ROOM_1_FLR_3
 62
  8
 10
        4.57200
 20
       14.32600
 30
        7.00800
 11
        4.57200
 21
        5.79100
 31
        7.00800
 12
        0.00000
 22
        5.79100
 32
        7.00800
 13
        0.00000
 23
       14.32600
 33
        7.00800
999
ROOM_1_FLR_3:ROOM_1_FLR_3_CEILING
  0
3DFACE
  8
ROOM_1_FLR_3
 62
 15
 10
        0.00000
 20
       14.32600
 30
       10.05600
 11
        0.00000
 21
        5.79100
 31
       10.05600
 12
        4.57200
 22
        5.79100
 32
       10.05600
 13
        4.57200
 23
       14.32600
 33
       10.05600
999
ROOM_2_FLR_3:ROOM_2_FLR_3_WALL_NORTH
  0
3DFACE
  8
ROOM_2_FLR_3
 62
 43
 10
        4.57200
 20
       22.86000
 30
       10.05600
 11
        4.57200
 21
       22.86000
 31
        7.00800
 12
        0.00000
 22
       22.86000
 32
        7.00800
 13
        0.00000
 23
       22.86000
 33
       10.05600
999
ROOM_2_FLR_3:ROOM_2_FLR_3_WALL_NORTH_WINDOW
  0
3DFACE
  8
ROOM_2_FLR_3
 62
143
 10
        4.17200
 20
       22.86000
 30
        9.33300
 11
        4.17200
 21
       22.86000
 31
        8.11376
 12
        0.40000
 22
       22.86000
 32
        8.11376
 13
        0.40000
 23
       22.86000
 33
        9.33300
999
ROOM_2_FLR_3:ROOM_2_FLR_3_WALL_WEST
  0
3DFACE
  8
ROOM_2_FLR_3
 62
 43
 10
        0.00000
 20
       22.86000
 30
       10.05600
 11
        0.00000
 21
       22.86000
 31
        7.00800
 12
        0.00000
 22
       14.32600
 32
        7.00800
 13
        0.00000
 23
       14.32600
 33
       10.05600
999
ROOM_2_FLR_3:ROOM_2_FLR_3_WALL_WEST_WINDOW
  0
3DFACE
  8
ROOM_2_FLR_3
 62
143
 10
        0.00000
 20
       22.11300
 30
        9.33300
 11
        0.00000
 21
       22.11300
 31
        8.11376
 12
        0.00000
 22
       15.07200
 32
        8.11376
 13
        0.00000
 23
       15.07200
 33
        9.33300
999
ROOM_2_FLR_3:ROOM_2_FLR_3_WALL_EAST
  0
3DFACE
  8
ROOM_2_FLR_3
 62
 43
 10
        4.57200
 20
       14.32600
 30
       10.05600
 11
        4.57200
 21
       14.32600
 31
        7.00800
 12
        4.57200
 22
       22.86000
 32
        7.00800
 13
        4.57200
 23
       22.86000
 33
       10.05600
999
ROOM_2_FLR_3:ROOM_2_FLR_3_WALL_SOUTH
  0
3DFACE
  8
ROOM_2_FLR_3
 62
 43
 10
        0.00000
 20
       14.32600
 30
       10.05600
 11
        0.00000
 21
       14.32600
 31
        7.00800
 12
        4.57200
 22
       14.32600
 32
        7.00800
 13
        4.57200
 23
       14.32600
 33
       10.05600
999
ROOM_2_FLR_3:ROOM_2_FLR_3_FLOOR
  0
3DFACE
  8
ROOM_2_FLR_3
 62
  8
 10
        4.57200
 20
       22.86000
 30
        7.00800
 11
        4.57200
 21
       14.32600
 31
        7.00800
 12
        0.00000
 22
       14.32600
 32
        7.00800
 13
        0.00000
 23
       22.86000
 33
        7.00800
999
ROOM_2_FLR_3:ROOM_2_FLR_3_CEILING
  0
3DFACE
  8
ROOM_2_FLR_3
 62
 15
 10
        0.00000
 20
       22.86000
 30
       10.05600
 11
        0.00000
 21
       14.32600
 31
       10.05600
 12
        4.57200
 22
       14.32600
 32
       10.05600
 13
        4.57200
 23
       22.86000
 33
       10.05600
999
ROOM_3_MULT19_FLR_3:ROOM_3_MULT19_FLR_3_WALL_SOUTH
  0
3DFACE
  8
ROOM_3_MULT19_FLR_3
 62
 43
 10
        6.70600
 20
        5.79100
 30
       10.05600
 11
        6.70600
 21
        5.79100
 31
        7.00800
 12
       10.36300
 22
        5.79100
 32
        7.00800
 13
       10.36300
 23
        5.79100
 33
       10.05600
999
ROOM_3_MULT19_FLR_3:ROOM_3_MULT19_FLR_3_WALL_SOUTH_WINDOW
  0
3DFACE
  8
ROOM_3_MULT19_FLR_3
 62
143
 10
        7.02600
 20
        5.79100
 30
        9.33300
 11
        7.02600
 21
        5.79100
 31
        8.11376
 12
       10.04300
 22
        5.79100
 32
        8.11376
 13
       10.04300
 23
        5.79100
 33
        9.33300
999
ROOM_3_MULT19_FLR_3:ROOM_3_MULT19_FLR_3_WALL_NORTH
  0
3DFACE
  8
ROOM_3_MULT19_FLR_3
 62
 43
 10
       10.36300
 20
       12.49700
 30
       10.05600
 11
       10.36300
 21
       12.49700
 31
        7.00800
 12
        6.70600
 22
       12.49700
 32
        7.00800
 13
        6.70600
 23
       12.49700
 33
       10.05600
999
ROOM_3_MULT19_FLR_3:ROOM_3_MULT19_FLR_3_WALL_EAST
  0
3DFACE
  8
ROOM_3_MULT19_FLR_3
 62
 43
 10
       10.36300
 20
        5.79100
 30
       10.05600
 11
       10.36300
 21
        5.79100
 31
        7.00800
 12
       10.36300
 22
       12.49700
 32
        7.00800
 13
       10.36300
 23
       12.49700
 33
       10.05600
999
ROOM_3_MULT19_FLR_3:ROOM_3_MULT19_FLR_3_WALL_WEST
  0
3DFACE
  8
ROOM_3_MULT19_FLR_3
 62
 43
 10
        6.70600
 20
       12.49700
 30
       10.05600
 11
        6.70600
 21
       12.49700
 31
        7.00800
 12
        6.70600
 22
        5.79100
 32
        7.00800
 13
        6.70600
 23
        5.79100
 33
       10.05600
999
ROOM_3_MULT19_FLR_3:ROOM_3_MULT19_FLR_3_FLOOR
  0
3DFACE
  8
ROOM_3_MULT19_FLR_3
 62
  8
 10
       10.36300
 20
       12.49700
 30
        7.00800
 11
       10.36300
 21
        5.79100
 31
        7.00800
 12
        6.70600
 22
        5.79100
 32
        7.00800
 13
        6.70600
 23
       12.49700
 33
        7.00800
999
ROOM_3_MULT19_FLR_3:ROOM_3_MULT19_FLR_3_CEILING
  0
3DFACE
  8
ROOM_3_MULT19_FLR_3
 62
 15
 10
        6.70600
 20
       12.49700
 30
       10.05600
 11
        6.70600
 21
        5.79100
 31
       10.05600
 12
       10.36300
 22
        5.79100
 32
       10.05600
 13
       10.36300
 23
       12.49700
 33
       10.05600
999
ROOM_4_MULT19_FLR_3:ROOM_4_MULT19_FLR_3_WALL_NORTH
  0
3DFACE
  8
ROOM_4_MULT19_FLR_3
 62
 43
 10
       14.02100
 20
       22.86000
 30
       10.05600
 11
       14.02100
 21
       22.86000
 31
        7.00800
 12
       10.36300
 22
       22.86000
 32
        7.00800
 13
       10.36300
 23
       22.86000
 33
       10.05600
999
ROOM_4_MULT19_FLR_3:ROOM_4_MULT19_FLR_3_WALL_NORTH_WINDOW
  0
3DFACE
  8
ROOM_4_MULT19_FLR_3
 62
143
 10
       13.70100
 20
       22.86000
 30
        9.33300
 11
       13.70100
 21
       22.86000
 31
        8.11376
 12
       10.68300
 22
       22.86000
 32
        8.11376
 13
       10.68300
 23
       22.86000
 33
        9.33300
999
ROOM_4_MULT19_FLR_3:ROOM_4_MULT19_FLR_3_WALL_EAST
  0
3DFACE
  8
ROOM_4_MULT19_FLR_3
 62
 43
 10
       14.02100
 20
       16.15400
 30
       10.05600
 11
       14.02100
 21
       16.15400
 31
        7.00800
 12
       14.02100
 22
       22.86000
 32
        7.00800
 13
       14.02100
 23
       22.86000
 33
       10.05600
999
ROOM_4_MULT19_FLR_3:ROOM_4_MULT19_FLR_3_WALL_SOUTH
  0
3DFACE
  8
ROOM_4_MULT19_FLR_3
 62
 43
 10
       10.36300
 20
       16.15400
 30
       10.05600
 11
       10.36300
 21
       16.15400
 31
        7.00800
 12
       14.02100
 22
       16.15400
 32
        7.00800
 13
       14.02100
 23
       16.15400
 33
       10.05600
999
ROOM_4_MULT19_FLR_3:ROOM_4_MULT19_FLR_3_WALL_WEST
  0
3DFACE
  8
ROOM_4_MULT19_FLR_3
 62
 43
 10
       10.36300
 20
       22.86000
 30
       10.05600
 11
       10.36300
 21
       22.86000
 31
        7.00800
 12
       10.36300
 22
       16.15400
 32
        7.00800
 13
       10.36300
 23
       16.15400
 33
       10.05600
999
ROOM_4_MULT19_FLR_3:ROOM_4_MULT19_FLR_3_FLOOR
  0
3DFACE
  8
ROOM_4_MULT19_FLR_3
 62
  8
 10
       14.02100
 20
       22.86000
 30
        7.00800
 11
       14.02100
 21
       16.15400
 31
        7.00800
 12
       10.36300
 22
       16.15400
 32
        7.00800
 13
       10.36300
 23
       22.86000
 33
        7.00800
999
ROOM_4_MULT19_FLR_3:ROOM_4_MULT19_FLR_3_CEILING
  0
3DFACE
  8
ROOM_4_MULT19_FLR_3
 62
 15
 10
       10.36300
 20
       22.86000
 30
       10.05600
 11
       10.36300
 21
       16.15400
 31
       10.05600
 12
       14.02100
 22
       16.15400
 32
       10.05600
 13
       14.02100
 23
       22.86000
 33
       10.05600
999
ROOM_5_FLR_3:ROOM_5_FLR_3_WALL_EAST
  0
3DFACE
  8
ROOM_5_FLR_3
 62
 43
 10
       86.56300
 20
        5.79100
 30
       10.05600
 11
       86.56300
 21
        5.79100
 31
        7.00800
 12
       86.56300
 22
       14.32600
 32
        7.00800
 13
       86.56300
 23
       14.32600
 33
       10.05600
999
ROOM_5_FLR_3:ROOM_5_FLR_3_WALL_EAST_WINDOW
  0
3DFACE
  8
ROOM_5_FLR_3
 62
143
 10
       86.56300
 20
        6.53800
 30
        9.33300
 11
       86.56300
 21
        6.53800
 31
        8.11376
 12
       86.56300
 22
       13.57900
 32
        8.11376
 13
       86.56300
 23
       13.57900
 33
        9.33300
999
ROOM_5_FLR_3:ROOM_5_FLR_3_WALL_SOUTH
  0
3DFACE
  8
ROOM_5_FLR_3
 62
 43
 10
       81.99100
 20
        5.79100
 30
       10.05600
 11
       81.99100
 21
        5.79100
 31
        7.00800
 12
       86.56300
 22
        5.79100
 32
        7.00800
 13
       86.56300
 23
        5.79100
 33
       10.05600
999
ROOM_5_FLR_3:ROOM_5_FLR_3_WALL_SOUTH_WINDOW
  0
3DFACE
  8
ROOM_5_FLR_3
 62
143
 10
       82.39100
 20
        5.79100
 30
        9.33300
 11
       82.39100
 21
        5.79100
 31
        8.11376
 12
       86.16300
 22
        5.79100
 32
        8.11376
 13
       86.16300
 23
        5.79100
 33
        9.33300
999
ROOM_5_FLR_3:ROOM_5_FLR_3_WALL_NORTH
  0
3DFACE
  8
ROOM_5_FLR_3
 62
 43
 10
       86.56300
 20
       14.32600
 30
       10.05600
 11
       86.56300
 21
       14.32600
 31
        7.00800
 12
       81.99100
 22
       14.32600
 32
        7.00800
 13
       81.99100
 23
       14.32600
 33
       10.05600
999
ROOM_5_FLR_3:ROOM_5_FLR_3_WALL_WEST
  0
3DFACE
  8
ROOM_5_FLR_3
 62
 43
 10
       81.99100
 20
       14.32600
 30
       10.05600
 11
       81.99100
 21
       14.32600
 31
        7.00800
 12
       81.99100
 22
        5.79100
 32
        7.00800
 13
       81.99100
 23
        5.79100
 33
       10.05600
999
ROOM_5_FLR_3:ROOM_5_FLR_3_FLOOR
  0
3DFACE
  8
ROOM_5_FLR_3
 62
  8
 10
       86.56300
 20
       14.32600
 30
        7.00800
 11
       86.56300
 21
        5.79100
 31
        7.00800
 12
       81.99100
 22
        5.79100
 32
        7.00800
 13
       81.99100
 23
       14.32600
 33
        7.00800
999
ROOM_5_FLR_3:ROOM_5_FLR_3_CEILING
  0
3DFACE
  8
ROOM_5_FLR_3
 62
 15
 10
       81.99100
 20
       14.32600
 30
       10.05600
 11
       81.99100
 21
        5.79100
 31
       10.05600
 12
       86.56300
 22
        5.79100
 32
       10.05600
 13
       86.56300
 23
       14.32600
 33
       10.05600
999
ROOM_6_FLR_3:ROOM_6_FLR_3_WALL_NORTH
  0
3DFACE
  8
ROOM_6_FLR_3
 62
 43
 10
       86.56300
 20
       22.86000
 30
       10.05600
 11
       86.56300
 21
       22.86000
 31
        7.00800
 12
       81.99100
 22
       22.86000
 32
        7.00800
 13
       81.99100
 23
       22.86000
 33
       10.05600
999
ROOM_6_FLR_3:ROOM_6_FLR_3_WALL_NORTH_WINDOW
  0
3DFACE
  8
ROOM_6_FLR_3
 62
143
 10
       86.16300
 20
       22.86000
 30
        9.33300
 11
       86.16300
 21
       22.86000
 31
        8.11376
 12
       82.39100
 22
       22.86000
 32
        8.11376
 13
       82.39100
 23
       22.86000
 33
        9.33300
999
ROOM_6_FLR_3:ROOM_6_FLR_3_WALL_EAST
  0
3DFACE
  8
ROOM_6_FLR_3
 62
 43
 10
       86.56300
 20
       14.32600
 30
       10.05600
 11
       86.56300
 21
       14.32600
 31
        7.00800
 12
       86.56300
 22
       22.86000
 32
        7.00800
 13
       86.56300
 23
       22.86000
 33
       10.05600
999
ROOM_6_FLR_3:ROOM_6_FLR_3_WALL_EAST_WINDOW
  0
3DFACE
  8
ROOM_6_FLR_3
 62
143
 10
       86.56300
 20
       15.07200
 30
        9.33300
 11
       86.56300
 21
       15.07200
 31
        8.11376
 12
       86.56300
 22
       22.11300
 32
        8.11376
 13
       86.56300
 23
       22.11300
 33
        9.33300
999
ROOM_6_FLR_3:ROOM_6_FLR_3_WALL_SOUTH
  0
3DFACE
  8
ROOM_6_FLR_3
 62
 43
 10
       81.99100
 20
       14.32600
 30
       10.05600
 11
       81.99100
 21
       14.32600
 31
        7.00800
 12
       86.56300
 22
       14.32600
 32
        7.00800
 13
       86.56300
 23
       14.32600
 33
       10.05600
999
ROOM_6_FLR_3:ROOM_6_FLR_3_WALL_WEST
  0
3DFACE
  8
ROOM_6_FLR_3
 62
 43
 10
       81.99100
 20
       22.86000
 30
       10.05600
 11
       81.99100
 21
       22.86000
 31
        7.00800
 12
       81.99100
 22
       14.32600
 32
        7.00800
 13
       81.99100
 23
       14.32600
 33
       10.05600
999
ROOM_6_FLR_3:ROOM_6_FLR_3_FLOOR
  0
3DFACE
  8
ROOM_6_FLR_3
 62
  8
 10
       86.56300
 20
       22.86000
 30
        7.00800
 11
       86.56300
 21
       14.32600
 31
        7.00800
 12
       81.99100
 22
       14.32600
 32
        7.00800
 13
       81.99100
 23
       22.86000
 33
        7.00800
999
ROOM_6_FLR_3:ROOM_6_FLR_3_CEILING
  0
3DFACE
  8
ROOM_6_FLR_3
 62
 15
 10
       81.99100
 20
       22.86000
 30
       10.05600
 11
       81.99100
 21
       14.32600
 31
       10.05600
 12
       86.56300
 22
       14.32600
 32
       10.05600
 13
       86.56300
 23
       22.86000
 33
       10.05600
999
CORRIDOR_FLR_3:CORRIDOR_FLR_3_WALL_1_NORTH
  0
3DFACE
  8
CORRIDOR_FLR_3
 62
 43
 10
       10.36300
 20
       22.86000
 30
       10.05600
 11
       10.36300
 21
       22.86000
 31
        7.00800
 12
        4.57200
 22
       22.86000
 32
        7.00800
 13
        4.57200
 23
       22.86000
 33
       10.05600
999
CORRIDOR_FLR_3:CORRIDOR_FLR_3_WALL_1_NORTH_WINDOW
  0
3DFACE
  8
CORRIDOR_FLR_3
 62
143
 10
        9.85600
 20
       22.86000
 30
        9.33300
 11
        9.85600
 21
       22.86000
 31
        8.11376
 12
        5.07900
 22
       22.86000
 32
        8.11376
 13
        5.07900
 23
       22.86000
 33
        9.33300
999
CORRIDOR_FLR_3:CORRIDOR_FLR_3_WALL_2_NORTH
  0
3DFACE
  8
CORRIDOR_FLR_3
 62
 43
 10
       81.99100
 20
       22.86000
 30
       10.05600
 11
       81.99100
 21
       22.86000
 31
        7.00800
 12
       79.85800
 22
       22.86000
 32
        7.00800
 13
       79.85800
 23
       22.86000
 33
       10.05600
999
CORRIDOR_FLR_3:CORRIDOR_FLR_3_WALL_2_NORTH_WINDOW
  0
3DFACE
  8
CORRIDOR_FLR_3
 62
143
 10
       81.80500
 20
       22.86000
 30
        9.33300
 11
       81.80500
 21
       22.86000
 31
        8.11376
 12
       80.04400
 22
       22.86000
 32
        8.11376
 13
       80.04400
 23
       22.86000
 33
        9.33300
999
CORRIDOR_FLR_3:CORRIDOR_FLR_3_WALL_1_SOUTH
  0
3DFACE
  8
CORRIDOR_FLR_3
 62
 43
 10
        4.57200
 20
        5.79100
 30
       10.05600
 11
        4.57200
 21
        5.79100
 31
        7.00800
 12
        6.70600
 22
        5.79100
 32
        7.00800
 13
        6.70600
 23
        5.79100
 33
       10.05600
999
CORRIDOR_FLR_3:CORRIDOR_FLR_3_WALL_1_SOUTH_WINDOW
  0
3DFACE
  8
CORRIDOR_FLR_3
 62
143
 10
        4.75900
 20
        5.79100
 30
        9.33300
 11
        4.75900
 21
        5.79100
 31
        8.11376
 12
        6.51900
 22
        5.79100
 32
        8.11376
 13
        6.51900
 23
        5.79100
 33
        9.33300
999
CORRIDOR_FLR_3:CORRIDOR_FLR_3_WALL_2_SOUTH
  0
3DFACE
  8
CORRIDOR_FLR_3
 62
 43
 10
       76.20000
 20
        5.79100
 30
       10.05600
 11
       76.20000
 21
        5.79100
 31
        7.00800
 12
       81.99100
 22
        5.79100
 32
        7.00800
 13
       81.99100
 23
        5.79100
 33
       10.05600
999
CORRIDOR_FLR_3:CORRIDOR_FLR_3_WALL_2_SOUTH_WINDOW
  0
3DFACE
  8
CORRIDOR_FLR_3
 62
143
 10
       76.70700
 20
        5.79100
 30
        9.33300
 11
       76.70700
 21
        5.79100
 31
        8.11376
 12
       81.48400
 22
        5.79100
 32
        8.11376
 13
       81.48400
 23
        5.79100
 33
        9.33300
999
CORRIDOR_FLR_3:CORRIDOR_FLR_3_WALL_3_NORTH
  0
3DFACE
  8
CORRIDOR_FLR_3
 62
 43
 10
       79.85800
 20
       16.15400
 30
       10.05600
 11
       79.85800
 21
       16.15400
 31
        7.00800
 12
       10.36300
 22
       16.15400
 32
        7.00800
 13
       10.36300
 23
       16.15400
 33
       10.05600
999
CORRIDOR_FLR_3:CORRIDOR_FLR_3_WALL_1_EAST
  0
3DFACE
  8
CORRIDOR_FLR_3
 62
 43
 10
       10.36300
 20
       16.15400
 30
       10.05600
 11
       10.36300
 21
       16.15400
 31
        7.00800
 12
       10.36300
 22
       22.86000
 32
        7.00800
 13
       10.36300
 23
       22.86000
 33
       10.05600
999
CORRIDOR_FLR_3:CORRIDOR_FLR_3_WALL_2_EAST
  0
3DFACE
  8
CORRIDOR_FLR_3
 62
 43
 10
        6.70600
 20
        5.79100
 30
       10.05600
 11
        6.70600
 21
        5.79100
 31
        7.00800
 12
        6.70600
 22
       12.49700
 32
        7.00800
 13
        6.70600
 23
       12.49700
 33
       10.05600
999
CORRIDOR_FLR_3:CORRIDOR_FLR_3_WALL_3_EAST
  0
3DFACE
  8
CORRIDOR_FLR_3
 62
 43
 10
       81.99100
 20
        5.79100
 30
       10.05600
 11
       81.99100
 21
        5.79100
 31
        7.00800
 12
       81.99100
 22
       14.32600
 32
        7.00800
 13
       81.99100
 23
       14.32600
 33
       10.05600
999
CORRIDOR_FLR_3:CORRIDOR_FLR_3_WALL_4_EAST
  0
3DFACE
  8
CORRIDOR_FLR_3
 62
 43
 10
       81.99100
 20
       14.32600
 30
       10.05600
 11
       81.99100
 21
       14.32600
 31
        7.00800
 12
       81.99100
 22
       22.86000
 32
        7.00800
 13
       81.99100
 23
       22.86000
 33
       10.05600
999
CORRIDOR_FLR_3:CORRIDOR_FLR_3_WALL_3_SOUTH
  0
3DFACE
  8
CORRIDOR_FLR_3
 62
 43
 10
        6.70600
 20
       12.49700
 30
       10.05600
 11
        6.70600
 21
       12.49700
 31
        7.00800
 12
       76.20000
 22
       12.49700
 32
        7.00800
 13
       76.20000
 23
       12.49700
 33
       10.05600
999
CORRIDOR_FLR_3:CORRIDOR_FLR_3_WALL_1_WEST
  0
3DFACE
  8
CORRIDOR_FLR_3
 62
 43
 10
       79.85800
 20
       22.86000
 30
       10.05600
 11
       79.85800
 21
       22.86000
 31
        7.00800
 12
       79.85800
 22
       16.15400
 32
        7.00800
 13
       79.85800
 23
       16.15400
 33
       10.05600
999
CORRIDOR_FLR_3:CORRIDOR_FLR_3_WALL_2_WEST
  0
3DFACE
  8
CORRIDOR_FLR_3
 62
 43
 10
       76.20000
 20
       12.49700
 30
       10.05600
 11
       76.20000
 21
       12.49700
 31
        7.00800
 12
       76.20000
 22
        5.79100
 32
        7.00800
 13
       76.20000
 23
        5.79100
 33
       10.05600
999
CORRIDOR_FLR_3:CORRIDOR_FLR_3_WALL_3_WEST
  0
3DFACE
  8
CORRIDOR_FLR_3
 62
 43
 10
        4.57200
 20
       14.32600
 30
       10.05600
 11
        4.57200
 21
       14.32600
 31
        7.00800
 12
        4.57200
 22
        5.79100
 32
        7.00800
 13
        4.57200
 23
        5.79100
 33
       10.05600
999
CORRIDOR_FLR_3:CORRIDOR_FLR_3_WALL_4_WEST
  0
3DFACE
  8
CORRIDOR_FLR_3
 62
 43
 10
        4.57200
 20
       22.86000
 30
       10.05600
 11
        4.57200
 21
       22.86000
 31
        7.00800
 12
        4.57200
 22
       14.32600
 32
        7.00800
 13
        4.57200
 23
       14.32600
 33
       10.05600
999
CORRIDOR_FLR_3:CORRIDOR_FLR_3_FLOOR_1
  0
3DFACE
  8
CORRIDOR_FLR_3
 62
  8
 10
        4.57200
 20
       22.86000
 30
        7.00800
 11
       10.36300
 21
       22.86000
 31
        7.00800
 12
       10.36300
 22
       12.49700
 32
        7.00800
 13
       10.36300
 23
       12.49700
 33
        7.00800
  0
3DFACE
  8
CORRIDOR_FLR_3
 62
  8
 10
        4.57200
 20
       22.86000
 30
        7.00800
 11
       10.36300
 21
       12.49700
 31
        7.00800
 12
        6.70600
 22
       12.49700
 32
        7.00800
 13
        6.70600
 23
       12.49700
 33
        7.00800
  0
3DFACE
  8
CORRIDOR_FLR_3
 62
  8
 10
        4.57200
 20
        5.79100
 30
        7.00800
 11
        4.57200
 21
       22.86000
 31
        7.00800
 12
        6.70600
 22
       12.49700
 32
        7.00800
 13
        6.70600
 23
       12.49700
 33
        7.00800
  0
3DFACE
  8
CORRIDOR_FLR_3
 62
  8
 10
        4.57200
 20
        5.79100
 30
        7.00800
 11
        6.70600
 21
       12.49700
 31
        7.00800
 12
        6.70600
 22
        5.79100
 32
        7.00800
 13
        6.70600
 23
        5.79100
 33
        7.00800
999
CORRIDOR_FLR_3:CORRIDOR_FLR_3_FLOOR_2
  0
3DFACE
  8
CORRIDOR_FLR_3
 62
  8
 10
       10.36300
 20
       16.15400
 30
        7.00800
 11
       76.20000
 21
       16.15400
 31
        7.00800
 12
       76.20000
 22
       12.49700
 32
        7.00800
 13
       10.36300
 23
       12.49700
 33
        7.00800
999
CORRIDOR_FLR_3:CORRIDOR_FLR_3_FLOOR_3
  0
3DFACE
  8
CORRIDOR_FLR_3
 62
  8
 10
       79.85800
 20
       16.15400
 30
        7.00800
 11
       79.85800
 21
       22.86000
 31
        7.00800
 12
       81.99100
 22
       22.86000
 32
        7.00800
 13
       81.99100
 23
       22.86000
 33
        7.00800
  0
3DFACE
  8
CORRIDOR_FLR_3
 62
  8
 10
       81.99100
 20
        5.79100
 30
        7.00800
 11
       76.20000
 21
        5.79100
 31
        7.00800
 12
       76.20000
 22
       16.15400
 32
        7.00800
 13
       76.20000
 23
       16.15400
 33
        7.00800
  0
3DFACE
  8
CORRIDOR_FLR_3
 62
  8
 10
       81.99100
 20
        5.79100
 30
        7.00800
 11
       76.20000
 21
       16.15400
 31
        7.00800
 12
       79.85800
 22
       16.15400
 32
        7.00800
 13
       79.85800
 23
       16.15400
 33
        7.00800
  0
3DFACE
  8
CORRIDOR_FLR_3
 62
  8
 10
       79.85800
 20
       16.15400
 30
        7.00800
 11
       81.99100
 21
       22.86000
 31
        7.00800
 12
       81.99100
 22
        5.79100
 32
        7.00800
 13
       81.99100
 23
        5.79100
 33
        7.00800
999
CORRIDOR_FLR_3:CORRIDOR_FLR_3_CEILING_1
  0
3DFACE
  8
CORRIDOR_FLR_3
 62
 15
 10
        4.57200
 20
        5.79100
 30
       10.05600
 11
        6.70600
 21
        5.79100
 31
       10.05600
 12
        6.70600
 22
       12.49700
 32
       10.05600
 13
        6.70600
 23
       12.49700
 33
       10.05600
  0
3DFACE
  8
CORRIDOR_FLR_3
 62
 15
 10
        6.70600
 20
       12.49700
 30
       10.05600
 11
       10.36300
 21
       12.49700
 31
       10.05600
 12
       10.36300
 22
       22.86000
 32
       10.05600
 13
       10.36300
 23
       22.86000
 33
       10.05600
  0
3DFACE
  8
CORRIDOR_FLR_3
 62
 15
 10
        6.70600
 20
       12.49700
 30
       10.05600
 11
       10.36300
 21
       22.86000
 31
       10.05600
 12
        4.57200
 22
       22.86000
 32
       10.05600
 13
        4.57200
 23
       22.86000
 33
       10.05600
  0
3DFACE
  8
CORRIDOR_FLR_3
 62
 15
 10
        4.57200
 20
        5.79100
 30
       10.05600
 11
        6.70600
 21
       12.49700
 31
       10.05600
 12
        4.57200
 22
       22.86000
 32
       10.05600
 13
        4.57200
 23
       22.86000
 33
       10.05600
999
CORRIDOR_FLR_3:CORRIDOR_FLR_3_CEILING_2
  0
3DFACE
  8
CORRIDOR_FLR_3
 62
 15
 10
       10.36300
 20
       12.49700
 30
       10.05600
 11
       76.20000
 21
       12.49700
 31
       10.05600
 12
       76.20000
 22
       16.15400
 32
       10.05600
 13
       10.36300
 23
       16.15400
 33
       10.05600
999
CORRIDOR_FLR_3:CORRIDOR_FLR_3_CEILING_3
  0
3DFACE
  8
CORRIDOR_FLR_3
 62
 15
 10
       81.99100
 20
        5.79100
 30
       10.05600
 11
       81.99100
 21
       22.86000
 31
       10.05600
 12
       79.85800
 22
       22.86000
 32
       10.05600
 13
       79.85800
 23
       22.86000
 33
       10.05600
  0
3DFACE
  8
CORRIDOR_FLR_3
 62
 15
 10
       81.99100
 20
        5.79100
 30
       10.05600
 11
       79.85800
 21
       22.86000
 31
       10.05600
 12
       79.85800
 22
       16.15400
 32
       10.05600
 13
       79.85800
 23
       16.15400
 33
       10.05600
  0
3DFACE
  8
CORRIDOR_FLR_3
 62
 15
 10
       76.20000
 20
        5.79100
 30
       10.05600
 11
       81.99100
 21
        5.79100
 31
       10.05600
 12
       79.85800
 22
       16.15400
 32
       10.05600
 13
       79.85800
 23
       16.15400
 33
       10.05600
  0
3DFACE
  8
CORRIDOR_FLR_3
 62
 15
 10
       76.20000
 20
        5.79100
 30
       10.05600
 11
       79.85800
 21
       16.15400
 31
       10.05600
 12
       76.20000
 22
       16.15400
 32
       10.05600
 13
       76.20000
 23
       16.15400
 33
       10.05600
999
ROOM_1_FLR_6:ROOM_1_FLR_6_WALL_SOUTH
  0
3DFACE
  8
ROOM_1_FLR_6
 62
 43
 10
        0.00000
 20
        5.79100
 30
       19.20000
 11
        0.00000
 21
        5.79100
 31
       16.15200
 12
        4.57200
 22
        5.79100
 32
       16.15200
 13
        4.57200
 23
        5.79100
 33
       19.20000
999
ROOM_1_FLR_6:ROOM_1_FLR_6_WALL_SOUTH_WINDOW
  0
3DFACE
  8
ROOM_1_FLR_6
 62
143
 10
        0.40000
 20
        5.79100
 30
       18.48400
 11
        0.40000
 21
        5.79100
 31
       17.26476
 12
        4.17200
 22
        5.79100
 32
       17.26476
 13
        4.17200
 23
        5.79100
 33
       18.48400
999
ROOM_1_FLR_6:ROOM_1_FLR_6_WALL_WEST
  0
3DFACE
  8
ROOM_1_FLR_6
 62
 43
 10
        0.00000
 20
       14.32600
 30
       19.20000
 11
        0.00000
 21
       14.32600
 31
       16.15200
 12
        0.00000
 22
        5.79100
 32
       16.15200
 13
        0.00000
 23
        5.79100
 33
       19.20000
999
ROOM_1_FLR_6:ROOM_1_FLR_6_WALL_WEST_WINDOW
  0
3DFACE
  8
ROOM_1_FLR_6
 62
143
 10
        0.00000
 20
       13.57900
 30
       18.48400
 11
        0.00000
 21
       13.57900
 31
       17.26476
 12
        0.00000
 22
        6.53800
 32
       17.26476
 13
        0.00000
 23
        6.53800
 33
       18.48400
999
ROOM_1_FLR_6:ROOM_1_FLR_6_WALL_NORTH
  0
3DFACE
  8
ROOM_1_FLR_6
 62
 43
 10
        4.57200
 20
       14.32600
 30
       19.20000
 11
        4.57200
 21
       14.32600
 31
       16.15200
 12
        0.00000
 22
       14.32600
 32
       16.15200
 13
        0.00000
 23
       14.32600
 33
       19.20000
999
ROOM_1_FLR_6:ROOM_1_FLR_6_WALL_EAST
  0
3DFACE
  8
ROOM_1_FLR_6
 62
 43
 10
        4.57200
 20
        5.79100
 30
       19.20000
 11
        4.57200
 21
        5.79100
 31
       16.15200
 12
        4.57200
 22
       14.32600
 32
       16.15200
 13
        4.57200
 23
       14.32600
 33
       19.20000
999
ROOM_1_FLR_6:ROOM_1_FLR_6_FLOOR
  0
3DFACE
  8
ROOM_1_FLR_6
 62
  8
 10
        4.57200
 20
       14.32600
 30
       16.15200
 11
        4.57200
 21
        5.79100
 31
       16.15200
 12
        0.00000
 22
        5.79100
 32
       16.15200
 13
        0.00000
 23
       14.32600
 33
       16.15200
999
ROOM_1_FLR_6:ROOM_1_FLR_6_CEILING
  0
3DFACE
  8
ROOM_1_FLR_6
 62
 15
 10
        0.00000
 20
       14.32600
 30
       19.20000
 11
        0.00000
 21
        5.79100
 31
       19.20000
 12
        4.57200
 22
        5.79100
 32
       19.20000
 13
        4.57200
 23
       14.32600
 33
       19.20000
999
ROOM_2_FLR_6:ROOM_2_FLR_6_WALL_NORTH
  0
3DFACE
  8
ROOM_2_FLR_6
 62
 43
 10
        4.57200
 20
       22.86000
 30
       19.20000
 11
        4.57200
 21
       22.86000
 31
       16.15200
 12
        0.00000
 22
       22.86000
 32
       16.15200
 13
        0.00000
 23
       22.86000
 33
       19.20000
999
ROOM_2_FLR_6:ROOM_2_FLR_6_WALL_NORTH_WINDOW
  0
3DFACE
  8
ROOM_2_FLR_6
 62
143
 10
        4.17200
 20
       22.86000
 30
       18.48400
 11
        4.17200
 21
       22.86000
 31
       17.26476
 12
        0.40000
 22
       22.86000
 32
       17.26476
 13
        0.40000
 23
       22.86000
 33
       18.48400
999
ROOM_2_FLR_6:ROOM_2_FLR_6_WALL_WEST
  0
3DFACE
  8
ROOM_2_FLR_6
 62
 43
 10
        0.00000
 20
       22.86000
 30
       19.20000
 11
        0.00000
 21
       22.86000
 31
       16.15200
 12
        0.00000
 22
       14.32600
 32
       16.15200
 13
        0.00000
 23
       14.32600
 33
       19.20000
999
ROOM_2_FLR_6:ROOM_2_FLR_6_WALL_WEST_WINDOW
  0
3DFACE
  8
ROOM_2_FLR_6
 62
143
 10
        0.00000
 20
       22.11300
 30
       18.48400
 11
        0.00000
 21
       22.11300
 31
       17.26476
 12
        0.00000
 22
       15.07200
 32
       17.26476
 13
        0.00000
 23
       15.07200
 33
       18.48400
999
ROOM_2_FLR_6:ROOM_2_FLR_6_WALL_EAST
  0
3DFACE
  8
ROOM_2_FLR_6
 62
 43
 10
        4.57200
 20
       14.32600
 30
       19.20000
 11
        4.57200
 21
       14.32600
 31
       16.15200
 12
        4.57200
 22
       22.86000
 32
       16.15200
 13
        4.57200
 23
       22.86000
 33
       19.20000
999
ROOM_2_FLR_6:ROOM_2_FLR_6_WALL_SOUTH
  0
3DFACE
  8
ROOM_2_FLR_6
 62
 43
 10
        0.00000
 20
       14.32600
 30
       19.20000
 11
        0.00000
 21
       14.32600
 31
       16.15200
 12
        4.57200
 22
       14.32600
 32
       16.15200
 13
        4.57200
 23
       14.32600
 33
       19.20000
999
ROOM_2_FLR_6:ROOM_2_FLR_6_FLOOR
  0
3DFACE
  8
ROOM_2_FLR_6
 62
  8
 10
        4.57200
 20
       22.86000
 30
       16.15200
 11
        4.57200
 21
       14.32600
 31
       16.15200
 12
        0.00000
 22
       14.32600
 32
       16.15200
 13
        0.00000
 23
       22.86000
 33
       16.15200
999
ROOM_2_FLR_6:ROOM_2_FLR_6_CEILING
  0
3DFACE
  8
ROOM_2_FLR_6
 62
 15
 10
        0.00000
 20
       22.86000
 30
       19.20000
 11
        0.00000
 21
       14.32600
 31
       19.20000
 12
        4.57200
 22
       14.32600
 32
       19.20000
 13
        4.57200
 23
       22.86000
 33
       19.20000
999
ROOM_3_MULT9_FLR_6:ROOM_3_MULT9_FLR_6_WALL_SOUTH
  0
3DFACE
  8
ROOM_3_MULT9_FLR_6
 62
 43
 10
        4.57200
 20
        5.79100
 30
       19.20000
 11
        4.57200
 21
        5.79100
 31
       16.15200
 12
       11.27800
 22
        5.79100
 32
       16.15200
 13
       11.27800
 23
        5.79100
 33
       19.20000
999
ROOM_3_MULT9_FLR_6:ROOM_3_MULT9_FLR_6_WALL_SOUTH_WINDOW
  0
3DFACE
  8
ROOM_3_MULT9_FLR_6
 62
143
 10
        5.15900
 20
        5.79100
 30
       18.48400
 11
        5.15900
 21
        5.79100
 31
       17.26476
 12
       10.69100
 22
        5.79100
 32
       17.26476
 13
       10.69100
 23
        5.79100
 33
       18.48400
999
ROOM_3_MULT9_FLR_6:ROOM_3_MULT9_FLR_6_WALL_NORTH
  0
3DFACE
  8
ROOM_3_MULT9_FLR_6
 62
 43
 10
       11.27800
 20
        9.44900
 30
       19.20000
 11
       11.27800
 21
        9.44900
 31
       16.15200
 12
        4.57200
 22
        9.44900
 32
       16.15200
 13
        4.57200
 23
        9.44900
 33
       19.20000
999
ROOM_3_MULT9_FLR_6:ROOM_3_MULT9_FLR_6_WALL_EAST
  0
3DFACE
  8
ROOM_3_MULT9_FLR_6
 62
 43
 10
       11.27800
 20
        5.79100
 30
       19.20000
 11
       11.27800
 21
        5.79100
 31
       16.15200
 12
       11.27800
 22
        9.44900
 32
       16.15200
 13
       11.27800
 23
        9.44900
 33
       19.20000
999
ROOM_3_MULT9_FLR_6:ROOM_3_MULT9_FLR_6_WALL_WEST
  0
3DFACE
  8
ROOM_3_MULT9_FLR_6
 62
 43
 10
        4.57200
 20
        9.44900
 30
       19.20000
 11
        4.57200
 21
        9.44900
 31
       16.15200
 12
        4.57200
 22
        5.79100
 32
       16.15200
 13
        4.57200
 23
        5.79100
 33
       19.20000
999
ROOM_3_MULT9_FLR_6:ROOM_3_MULT9_FLR_6_FLOOR
  0
3DFACE
  8
ROOM_3_MULT9_FLR_6
 62
  8
 10
       11.27800
 20
        9.44900
 30
       16.15200
 11
       11.27800
 21
        5.79100
 31
       16.15200
 12
        4.57200
 22
        5.79100
 32
       16.15200
 13
        4.57200
 23
        9.44900
 33
       16.15200
999
ROOM_3_MULT9_FLR_6:ROOM_3_MULT9_FLR_6_CEILING
  0
3DFACE
  8
ROOM_3_MULT9_FLR_6
 62
 15
 10
        4.57200
 20
        9.44900
 30
       19.20000
 11
        4.57200
 21
        5.79100
 31
       19.20000
 12
       11.27800
 22
        5.79100
 32
       19.20000
 13
       11.27800
 23
        9.44900
 33
       19.20000
999
BANQUET_FLR_6:BANQUET_FLR_6_WALL_NORTH
  0
3DFACE
  8
BANQUET_FLR_6
 62
 43
 10
       42.36700
 20
       22.86000
 30
       19.20000
 11
       42.36700
 21
       22.86000
 31
       16.15200
 12
       10.36300
 22
       22.86000
 32
       16.15200
 13
       10.36300
 23
       22.86000
 33
       19.20000
999
BANQUET_FLR_6:BANQUET_FLR_6_WALL_NORTH_WINDOW
  0
3DFACE
  8
BANQUET_FLR_6
 62
143
 10
       39.56700
 20
       22.86000
 30
       18.48400
 11
       39.56700
 21
       22.86000
 31
       17.26476
 12
       13.16400
 22
       22.86000
 32
       17.26476
 13
       13.16400
 23
       22.86000
 33
       18.48400
999
BANQUET_FLR_6:BANQUET_FLR_6_WALL_EAST
  0
3DFACE
  8
BANQUET_FLR_6
 62
 43
 10
       42.36700
 20
       12.49700
 30
       19.20000
 11
       42.36700
 21
       12.49700
 31
       16.15200
 12
       42.36700
 22
       22.86000
 32
       16.15200
 13
       42.36700
 23
       22.86000
 33
       19.20000
999
BANQUET_FLR_6:BANQUET_FLR_6_WALL_SOUTH
  0
3DFACE
  8
BANQUET_FLR_6
 62
 43
 10
       10.36300
 20
       12.49700
 30
       19.20000
 11
       10.36300
 21
       12.49700
 31
       16.15200
 12
       42.36700
 22
       12.49700
 32
       16.15200
 13
       42.36700
 23
       12.49700
 33
       19.20000
999
BANQUET_FLR_6:BANQUET_FLR_6_WALL_WEST
  0
3DFACE
  8
BANQUET_FLR_6
 62
 43
 10
       10.36300
 20
       22.86000
 30
       19.20000
 11
       10.36300
 21
       22.86000
 31
       16.15200
 12
       10.36300
 22
       12.49700
 32
       16.15200
 13
       10.36300
 23
       12.49700
 33
       19.20000
999
BANQUET_FLR_6:BANQUET_FLR_6_FLOOR
  0
3DFACE
  8
BANQUET_FLR_6
 62
  8
 10
       42.36700
 20
       22.86000
 30
       16.15200
 11
       42.36700
 21
       12.49700
 31
       16.15200
 12
       10.36300
 22
       12.49700
 32
       16.15200
 13
       10.36300
 23
       22.86000
 33
       16.15200
999
BANQUET_FLR_6:BANQUET_FLR_6_CEILING
  0
3DFACE
  8
BANQUET_FLR_6
 62
 15
 10
       10.36300
 20
       22.86000
 30
       19.20000
 11
       10.36300
 21
       12.49700
 31
       19.20000
 12
       42.36700
 22
       12.49700
 32
       19.20000
 13
       42.36700
 23
       22.86000
 33
       19.20000
999
DINING_FLR_6:DINING_FLR_6_WALL_NORTH
  0
3DFACE
  8
DINING_FLR_6
 62
 43
 10
       79.55300
 20
       22.86000
 30
       19.20000
 11
       79.55300
 21
       22.86000
 31
       16.15200
 12
       47.54900
 22
       22.86000
 32
       16.15200
 13
       47.54900
 23
       22.86000
 33
       19.20000
999
DINING_FLR_6:DINING_FLR_6_WALL_NORTH_WINDOW
  0
3DFACE
  8
DINING_FLR_6
 62
143
 10
       76.75200
 20
       22.86000
 30
       18.48400
 11
       76.75200
 21
       22.86000
 31
       17.26476
 12
       50.34900
 22
       22.86000
 32
       17.26476
 13
       50.34900
 23
       22.86000
 33
       18.48400
999
DINING_FLR_6:DINING_FLR_6_WALL_EAST
  0
3DFACE
  8
DINING_FLR_6
 62
 43
 10
       79.55300
 20
       12.49700
 30
       19.20000
 11
       79.55300
 21
       12.49700
 31
       16.15200
 12
       79.55300
 22
       22.86000
 32
       16.15200
 13
       79.55300
 23
       22.86000
 33
       19.20000
999
DINING_FLR_6:DINING_FLR_6_WALL_SOUTH
  0
3DFACE
  8
DINING_FLR_6
 62
 43
 10
       47.54900
 20
       12.49700
 30
       19.20000
 11
       47.54900
 21
       12.49700
 31
       16.15200
 12
       79.55300
 22
       12.49700
 32
       16.15200
 13
       79.55300
 23
       12.49700
 33
       19.20000
999
DINING_FLR_6:DINING_FLR_6_WALL_WEST
  0
3DFACE
  8
DINING_FLR_6
 62
 43
 10
       47.54900
 20
       22.86000
 30
       19.20000
 11
       47.54900
 21
       22.86000
 31
       16.15200
 12
       47.54900
 22
       12.49700
 32
       16.15200
 13
       47.54900
 23
       12.49700
 33
       19.20000
999
DINING_FLR_6:DINING_FLR_6_FLOOR
  0
3DFACE
  8
DINING_FLR_6
 62
  8
 10
       79.55300
 20
       22.86000
 30
       16.15200
 11
       79.55300
 21
       12.49700
 31
       16.15200
 12
       47.54900
 22
       12.49700
 32
       16.15200
 13
       47.54900
 23
       22.86000
 33
       16.15200
999
DINING_FLR_6:DINING_FLR_6_CEILING
  0
3DFACE
  8
DINING_FLR_6
 62
 15
 10
       47.54900
 20
       22.86000
 30
       19.20000
 11
       47.54900
 21
       12.49700
 31
       19.20000
 12
       79.55300
 22
       12.49700
 32
       19.20000
 13
       79.55300
 23
       22.86000
 33
       19.20000
999
KITCHEN_FLR_6:KITCHEN_FLR_6_WALL_NORTH
  0
3DFACE
  8
KITCHEN_FLR_6
 62
 43
 10
       86.56300
 20
       22.86000
 30
       19.20000
 11
       86.56300
 21
       22.86000
 31
       16.15200
 12
       79.55300
 22
       22.86000
 32
       16.15200
 13
       79.55300
 23
       22.86000
 33
       19.20000
999
KITCHEN_FLR_6:KITCHEN_FLR_6_WALL_NORTH_WINDOW
  0
3DFACE
  8
KITCHEN_FLR_6
 62
143
 10
       86.16300
 20
       22.86000
 30
       18.48400
 11
       86.16300
 21
       22.86000
 31
       17.26476
 12
       82.39100
 22
       22.86000
 32
       17.26476
 13
       82.39100
 23
       22.86000
 33
       18.48400
999
KITCHEN_FLR_6:KITCHEN_FLR_6_WALL_EAST
  0
3DFACE
  8
KITCHEN_FLR_6
 62
 43
 10
       86.56300
 20
        5.79100
 30
       19.20000
 11
       86.56300
 21
        5.79100
 31
       16.15200
 12
       86.56300
 22
       22.86000
 32
       16.15200
 13
       86.56300
 23
       22.86000
 33
       19.20000
999
KITCHEN_FLR_6:KITCHEN_FLR_6_WALL_EAST_WINDOW
  0
3DFACE
  8
KITCHEN_FLR_6
 62
143
 10
       86.56300
 20
        7.28500
 30
       18.48400
 11
       86.56300
 21
        7.28500
 31
       17.26476
 12
       86.56300
 22
       21.36600
 32
       17.26476
 13
       86.56300
 23
       21.36600
 33
       18.48400
999
KITCHEN_FLR_6:KITCHEN_FLR_6_WALL_1_SOUTH
  0
3DFACE
  8
KITCHEN_FLR_6
 62
 43
 10
       81.99100
 20
        5.79100
 30
       19.20000
 11
       81.99100
 21
        5.79100
 31
       16.15200
 12
       86.56300
 22
        5.79100
 32
       16.15200
 13
       86.56300
 23
        5.79100
 33
       19.20000
999
KITCHEN_FLR_6:KITCHEN_FLR_6_WALL_1_SOUTH_WINDOW
  0
3DFACE
  8
KITCHEN_FLR_6
 62
143
 10
       82.39100
 20
        5.79100
 30
       18.48400
 11
       82.39100
 21
        5.79100
 31
       17.26476
 12
       86.16300
 22
        5.79100
 32
       17.26476
 13
       86.16300
 23
        5.79100
 33
       18.48400
999
KITCHEN_FLR_6:KITCHEN_FLR_6_WALL_2_SOUTH
  0
3DFACE
  8
KITCHEN_FLR_6
 62
 43
 10
       79.55300
 20
       12.49700
 30
       19.20000
 11
       79.55300
 21
       12.49700
 31
       16.15200
 12
       81.99100
 22
       12.49700
 32
       16.15200
 13
       81.99100
 23
       12.49700
 33
       19.20000
999
KITCHEN_FLR_6:KITCHEN_FLR_6_WALL_1_WEST
  0
3DFACE
  8
KITCHEN_FLR_6
 62
 43
 10
       81.99100
 20
       12.49700
 30
       19.20000
 11
       81.99100
 21
       12.49700
 31
       16.15200
 12
       81.99100
 22
        5.79100
 32
       16.15200
 13
       81.99100
 23
        5.79100
 33
       19.20000
999
KITCHEN_FLR_6:KITCHEN_FLR_6_WALL_2_WEST
  0
3DFACE
  8
KITCHEN_FLR_6
 62
 43
 10
       79.55300
 20
       22.86000
 30
       19.20000
 11
       79.55300
 21
       22.86000
 31
       16.15200
 12
       79.55300
 22
       12.49700
 32
       16.15200
 13
       79.55300
 23
       12.49700
 33
       19.20000
999
KITCHEN_FLR_6:KITCHEN_FLR_6_FLOOR
  0
3DFACE
  8
KITCHEN_FLR_6
 62
  8
 10
       79.55300
 20
       12.49700
 30
       16.15200
 11
       79.55300
 21
       22.86000
 31
       16.15200
 12
       86.56300
 22
       22.86000
 32
       16.15200
 13
       86.56300
 23
       22.86000
 33
       16.15200
  0
3DFACE
  8
KITCHEN_FLR_6
 62
  8
 10
       86.56300
 20
       22.86000
 30
       16.15200
 11
       86.56300
 21
        5.79100
 31
       16.15200
 12
       81.99100
 22
        5.79100
 32
       16.15200
 13
       81.99100
 23
        5.79100
 33
       16.15200
  0
3DFACE
  8
KITCHEN_FLR_6
 62
  8
 10
       86.56300
 20
       22.86000
 30
       16.15200
 11
       81.99100
 21
        5.79100
 31
       16.15200
 12
       81.99100
 22
       12.49700
 32
       16.15200
 13
       81.99100
 23
       12.49700
 33
       16.15200
  0
3DFACE
  8
KITCHEN_FLR_6
 62
  8
 10
       79.55300
 20
       12.49700
 30
       16.15200
 11
       86.56300
 21
       22.86000
 31
       16.15200
 12
       81.99100
 22
       12.49700
 32
       16.15200
 13
       81.99100
 23
       12.49700
 33
       16.15200
999
KITCHEN_FLR_6:KITCHEN_FLR_6_CEILING
  0
3DFACE
  8
KITCHEN_FLR_6
 62
 15
 10
       81.99100
 20
       12.49700
 30
       19.20000
 11
       81.99100
 21
        5.79100
 31
       19.20000
 12
       86.56300
 22
        5.79100
 32
       19.20000
 13
       86.56300
 23
        5.79100
 33
       19.20000
  0
3DFACE
  8
KITCHEN_FLR_6
 62
 15
 10
       86.56300
 20
        5.79100
 30
       19.20000
 11
       86.56300
 21
       22.86000
 31
       19.20000
 12
       79.55300
 22
       22.86000
 32
       19.20000
 13
       79.55300
 23
       22.86000
 33
       19.20000
  0
3DFACE
  8
KITCHEN_FLR_6
 62
 15
 10
       79.55300
 20
       22.86000
 30
       19.20000
 11
       79.55300
 21
       12.49700
 31
       19.20000
 12
       81.99100
 22
       12.49700
 32
       19.20000
 13
       81.99100
 23
       12.49700
 33
       19.20000
  0
3DFACE
  8
KITCHEN_FLR_6
 62
 15
 10
       81.99100
 20
       12.49700
 30
       19.20000
 11
       86.56300
 21
        5.79100
 31
       19.20000
 12
       79.55300
 22
       22.86000
 32
       19.20000
 13
       79.55300
 23
       22.86000
 33
       19.20000
999
CORRIDOR_FLR_6:CORRIDOR_FLR_6_WALL_1_NORTH
  0
3DFACE
  8
CORRIDOR_FLR_6
 62
 43
 10
       10.36300
 20
       22.86000
 30
       19.20000
 11
       10.36300
 21
       22.86000
 31
       16.15200
 12
        4.57200
 22
       22.86000
 32
       16.15200
 13
        4.57200
 23
       22.86000
 33
       19.20000
999
CORRIDOR_FLR_6:CORRIDOR_FLR_6_WALL_1_NORTH_WINDOW
  0
3DFACE
  8
CORRIDOR_FLR_6
 62
143
 10
        9.85600
 20
       22.86000
 30
       18.48400
 11
        9.85600
 21
       22.86000
 31
       17.26476
 12
        5.07900
 22
       22.86000
 32
       17.26476
 13
        5.07900
 23
       22.86000
 33
       18.48400
999
CORRIDOR_FLR_6:CORRIDOR_FLR_6_WALL_2_NORTH
  0
3DFACE
  8
CORRIDOR_FLR_6
 62
 43
 10
       47.54900
 20
       22.86000
 30
       19.20000
 11
       47.54900
 21
       22.86000
 31
       16.15200
 12
       42.36700
 22
       22.86000
 32
       16.15200
 13
       42.36700
 23
       22.86000
 33
       19.20000
999
CORRIDOR_FLR_6:CORRIDOR_FLR_6_WALL_2_NORTH_WINDOW
  0
3DFACE
  8
CORRIDOR_FLR_6
 62
143
 10
       47.09500
 20
       22.86000
 30
       18.48400
 11
       47.09500
 21
       22.86000
 31
       17.26476
 12
       42.82100
 22
       22.86000
 32
       17.26476
 13
       42.82100
 23
       22.86000
 33
       18.48400
999
CORRIDOR_FLR_6:CORRIDOR_FLR_6_WALL_2_SOUTH
  0
3DFACE
  8
CORRIDOR_FLR_6
 62
 43
 10
       64.92200
 20
        5.79100
 30
       19.20000
 11
       64.92200
 21
        5.79100
 31
       16.15200
 12
       81.99100
 22
        5.79100
 32
       16.15200
 13
       81.99100
 23
        5.79100
 33
       19.20000
999
CORRIDOR_FLR_6:CORRIDOR_FLR_6_WALL_2_SOUTH_WINDOW
  0
3DFACE
  8
CORRIDOR_FLR_6
 62
143
 10
       66.41600
 20
        5.79100
 30
       18.48400
 11
       66.41600
 21
        5.79100
 31
       17.26476
 12
       80.49800
 22
        5.79100
 32
       17.26476
 13
       80.49800
 23
        5.79100
 33
       18.48400
999
CORRIDOR_FLR_6:CORRIDOR_FLR_6_WALL_3_NORTH
  0
3DFACE
  8
CORRIDOR_FLR_6
 62
 43
 10
       42.36700
 20
       12.49700
 30
       19.20000
 11
       42.36700
 21
       12.49700
 31
       16.15200
 12
       10.36300
 22
       12.49700
 32
       16.15200
 13
       10.36300
 23
       12.49700
 33
       19.20000
999
CORRIDOR_FLR_6:CORRIDOR_FLR_6_WALL_4_NORTH
  0
3DFACE
  8
CORRIDOR_FLR_6
 62
 43
 10
       81.99100
 20
       12.49700
 30
       19.20000
 11
       81.99100
 21
       12.49700
 31
       16.15200
 12
       47.54900
 22
       12.49700
 32
       16.15200
 13
       47.54900
 23
       12.49700
 33
       19.20000
999
CORRIDOR_FLR_6:CORRIDOR_FLR_6_WALL_1_SOUTH
  0
3DFACE
  8
CORRIDOR_FLR_6
 62
 43
 10
        4.57200
 20
        9.44900
 30
       19.20000
 11
        4.57200
 21
        9.44900
 31
       16.15200
 12
       64.92200
 22
        9.44900
 32
       16.15200
 13
       64.92200
 23
        9.44900
 33
       19.20000
999
CORRIDOR_FLR_6:CORRIDOR_FLR_6_WALL_1_WEST
  0
3DFACE
  8
CORRIDOR_FLR_6
 62
 43
 10
       64.92200
 20
        9.44900
 30
       19.20000
 11
       64.92200
 21
        9.44900
 31
       16.15200
 12
       64.92200
 22
        5.79100
 32
       16.15200
 13
       64.92200
 23
        5.79100
 33
       19.20000
999
CORRIDOR_FLR_6:CORRIDOR_FLR_6_WALL_2_WEST
  0
3DFACE
  8
CORRIDOR_FLR_6
 62
 43
 10
        4.57200
 20
       22.86000
 30
       19.20000
 11
        4.57200
 21
       22.86000
 31
       16.15200
 12
        4.57200
 22
        9.44900
 32
       16.15200
 13
        4.57200
 23
        9.44900
 33
       19.20000
999
CORRIDOR_FLR_6:CORRIDOR_FLR_6_WALL_3_WEST
  0
3DFACE
  8
CORRIDOR_FLR_6
 62
 43
 10
       42.36700
 20
       22.86000
 30
       19.20000
 11
       42.36700
 21
       22.86000
 31
       16.15200
 12
       42.36700
 22
       12.49700
 32
       16.15200
 13
       42.36700
 23
       12.49700
 33
       19.20000
999
CORRIDOR_FLR_6:CORRIDOR_FLR_6_WALL_1_EAST
  0
3DFACE
  8
CORRIDOR_FLR_6
 62
 43
 10
       10.36300
 20
       12.49700
 30
       19.20000
 11
       10.36300
 21
       12.49700
 31
       16.15200
 12
       10.36300
 22
       22.86000
 32
       16.15200
 13
       10.36300
 23
       22.86000
 33
       19.20000
999
CORRIDOR_FLR_6:CORRIDOR_FLR_6_WALL_2_EAST
  0
3DFACE
  8
CORRIDOR_FLR_6
 62
 43
 10
       47.54900
 20
       12.49700
 30
       19.20000
 11
       47.54900
 21
       12.49700
 31
       16.15200
 12
       47.54900
 22
       22.86000
 32
       16.15200
 13
       47.54900
 23
       22.86000
 33
       19.20000
999
CORRIDOR_FLR_6:CORRIDOR_FLR_6_WALL_3_EAST
  0
3DFACE
  8
CORRIDOR_FLR_6
 62
 43
 10
       81.99100
 20
        5.79100
 30
       19.20000
 11
       81.99100
 21
        5.79100
 31
       16.15200
 12
       81.99100
 22
       12.49700
 32
       16.15200
 13
       81.99100
 23
       12.49700
 33
       19.20000
999
CORRIDOR_FLR_6:CORRIDOR_FLR_6_FLOOR
  0
3DFACE
  8
CORRIDOR_FLR_6
 62
  8
 10
        4.57200
 20
        9.44900
 30
       16.15200
 11
        4.57200
 21
       22.86000
 31
       16.15200
 12
       10.36300
 22
       22.86000
 32
       16.15200
 13
       10.36300
 23
       22.86000
 33
       16.15200
  0
3DFACE
  8
CORRIDOR_FLR_6
 62
  8
 10
        4.57200
 20
        9.44900
 30
       16.15200
 11
       10.36300
 21
       22.86000
 31
       16.15200
 12
       10.36300
 22
       12.49700
 32
       16.15200
 13
       10.36300
 23
       12.49700
 33
       16.15200
  0
3DFACE
  8
CORRIDOR_FLR_6
 62
  8
 10
        4.57200
 20
        9.44900
 30
       16.15200
 11
       10.36300
 21
       12.49700
 31
       16.15200
 12
       42.36700
 22
       12.49700
 32
       16.15200
 13
       42.36700
 23
       12.49700
 33
       16.15200
  0
3DFACE
  8
CORRIDOR_FLR_6
 62
  8
 10
       42.36700
 20
       12.49700
 30
       16.15200
 11
       42.36700
 21
       22.86000
 31
       16.15200
 12
       47.54900
 22
       22.86000
 32
       16.15200
 13
       47.54900
 23
       22.86000
 33
       16.15200
  0
3DFACE
  8
CORRIDOR_FLR_6
 62
  8
 10
       81.99100
 20
       12.49700
 30
       16.15200
 11
       81.99100
 21
        5.79100
 31
       16.15200
 12
       64.92200
 22
        5.79100
 32
       16.15200
 13
       64.92200
 23
        5.79100
 33
       16.15200
  0
3DFACE
  8
CORRIDOR_FLR_6
 62
  8
 10
       81.99100
 20
       12.49700
 30
       16.15200
 11
       64.92200
 21
        5.79100
 31
       16.15200
 12
       64.92200
 22
        9.44900
 32
       16.15200
 13
       64.92200
 23
        9.44900
 33
       16.15200
  0
3DFACE
  8
CORRIDOR_FLR_6
 62
  8
 10
       47.54900
 20
       12.49700
 30
       16.15200
 11
       81.99100
 21
       12.49700
 31
       16.15200
 12
       64.92200
 22
        9.44900
 32
       16.15200
 13
       64.92200
 23
        9.44900
 33
       16.15200
  0
3DFACE
  8
CORRIDOR_FLR_6
 62
  8
 10
       47.54900
 20
       12.49700
 30
       16.15200
 11
       64.92200
 21
        9.44900
 31
       16.15200
 12
        4.57200
 22
        9.44900
 32
       16.15200
 13
        4.57200
 23
        9.44900
 33
       16.15200
  0
3DFACE
  8
CORRIDOR_FLR_6
 62
  8
 10
       47.54900
 20
       12.49700
 30
       16.15200
 11
        4.57200
 21
        9.44900
 31
       16.15200
 12
       42.36700
 22
       12.49700
 32
       16.15200
 13
       42.36700
 23
       12.49700
 33
       16.15200
  0
3DFACE
  8
CORRIDOR_FLR_6
 62
  8
 10
       42.36700
 20
       12.49700
 30
       16.15200
 11
       47.54900
 21
       22.86000
 31
       16.15200
 12
       47.54900
 22
       12.49700
 32
       16.15200
 13
       47.54900
 23
       12.49700
 33
       16.15200
999
CORRIDOR_FLR_6:CORRIDOR_FLR_6_CEILING_1
  0
3DFACE
  8
CORRIDOR_FLR_6
 62
 15
 10
       47.54900
 20
        9.44900
 30
       19.20000
 11
       47.54900
 21
       22.86000
 31
       19.20000
 12
       42.36700
 22
       22.86000
 32
       19.20000
 13
       42.36700
 23
       22.86000
 33
       19.20000
  0
3DFACE
  8
CORRIDOR_FLR_6
 62
 15
 10
       47.54900
 20
        9.44900
 30
       19.20000
 11
       42.36700
 21
       22.86000
 31
       19.20000
 12
       42.36700
 22
       12.49700
 32
       19.20000
 13
       42.36700
 23
       12.49700
 33
       19.20000
  0
3DFACE
  8
CORRIDOR_FLR_6
 62
 15
 10
        4.57200
 20
        9.44900
 30
       19.20000
 11
       47.54900
 21
        9.44900
 31
       19.20000
 12
       42.36700
 22
       12.49700
 32
       19.20000
 13
       42.36700
 23
       12.49700
 33
       19.20000
  0
3DFACE
  8
CORRIDOR_FLR_6
 62
 15
 10
        4.57200
 20
        9.44900
 30
       19.20000
 11
       42.36700
 21
       12.49700
 31
       19.20000
 12
       10.36300
 22
       12.49700
 32
       19.20000
 13
       10.36300
 23
       12.49700
 33
       19.20000
  0
3DFACE
  8
CORRIDOR_FLR_6
 62
 15
 10
        4.57200
 20
        9.44900
 30
       19.20000
 11
       10.36300
 21
       12.49700
 31
       19.20000
 12
       10.36300
 22
       22.86000
 32
       19.20000
 13
       10.36300
 23
       22.86000
 33
       19.20000
  0
3DFACE
  8
CORRIDOR_FLR_6
 62
 15
 10
        4.57200
 20
        9.44900
 30
       19.20000
 11
       10.36300
 21
       22.86000
 31
       19.20000
 12
        4.57200
 22
       22.86000
 32
       19.20000
 13
        4.57200
 23
       22.86000
 33
       19.20000
999
CORRIDOR_FLR_6:CORRIDOR_FLR_6_CEILING_2
  0
3DFACE
  8
CORRIDOR_FLR_6
 62
 15
 10
       64.92200
 20
        9.44900
 30
       19.20000
 11
       64.92200
 21
        5.79100
 31
       19.20000
 12
       81.99100
 22
        5.79100
 32
       19.20000
 13
       81.99100
 23
        5.79100
 33
       19.20000
  0
3DFACE
  8
CORRIDOR_FLR_6
 62
 15
 10
       81.99100
 20
       12.49700
 30
       19.20000
 11
       47.54900
 21
       12.49700
 31
       19.20000
 12
       47.54900
 22
        9.44900
 32
       19.20000
 13
       47.54900
 23
        9.44900
 33
       19.20000
  0
3DFACE
  8
CORRIDOR_FLR_6
 62
 15
 10
       81.99100
 20
       12.49700
 30
       19.20000
 11
       47.54900
 21
        9.44900
 31
       19.20000
 12
       64.92200
 22
        9.44900
 32
       19.20000
 13
       64.92200
 23
        9.44900
 33
       19.20000
  0
3DFACE
  8
CORRIDOR_FLR_6
 62
 15
 10
       64.92200
 20
        9.44900
 30
       19.20000
 11
       81.99100
 21
        5.79100
 31
       19.20000
 12
       81.99100
 22
       12.49700
 32
       19.20000
 13
       81.99100
 23
       12.49700
 33
       19.20000
999
LOBBY_FLR_1:DayRefPt:LOBBY_FLR_1_DAYLREFPT1
  0
CIRCLE
  8
LOBBY_FLR_1
 62
 10
 10
       32.76600
 20
        1.53160
 30
        0.76200
 40
        0.20000
999
LOBBY_FLR_1:DayRefPt:LOBBY_FLR_1_DAYLREFPT2
  0
CIRCLE
  8
LOBBY_FLR_1
 62
  5
 10
       32.76600
 20
        3.06320
 30
        0.76200
 40
        0.20000
999
CAFE_FLR_1:DayRefPt:CAFE_FLR_1_DAYLREFPT1
  0
CIRCLE
  8
CAFE_FLR_1
 62
 10
 10
       70.25650
 20
        1.53160
 30
        0.76200
 40
        0.20000
999
CAFE_FLR_1:DayRefPt:CAFE_FLR_1_DAYLREFPT2
  0
CIRCLE
  8
CAFE_FLR_1
 62
  5
 10
       70.25650
 20
        3.06320
 30
        0.76200
 40
        0.20000
999
DINING_FLR_6:DayRefPt:DINING_FLR_6_DAYLREFPT1
  0
CIRCLE
  8
DINING_FLR_6
 62
 10
 10
       63.55100
 20
       21.29760
 30
       16.91400
 40
        0.20000
999
DINING_FLR_6:DayRefPt:DINING_FLR_6_DAYLREFPT2
  0
CIRCLE
  8
DINING_FLR_6
 62
  5
 10
       63.55100
 20
       19.73510
 30
       16.91400
 40
        0.20000
999
BANQUET_FLR_6:DayRefPt:BANQUET_FLR_6_DAYLREFPT1
  0
CIRCLE
  8
BANQUET_FLR_6
 62
 10
 10
       26.36500
 20
       21.29760
 30
       16.91400
 40
        0.20000
999
BANQUET_FLR_6:DayRefPt:BANQUET_FLR_6_DAYLREFPT2
  0
CIRCLE
  8
BANQUET_FLR_6
 62
  5
 10
       26.36500
 20
       19.73510
 30
       16.91400
 40
        0.20000
  0
ENDSEC
  0
EOF
