Program Version,EnergyPlus, Version 24.2.0-94a887817b, YMD=2025.03.11 15:55,
   ************* Beginning Zone Sizing Calculations
   ** Warning ** Weather file location will be used rather than entered (IDF) Location object.
   **   ~~~   ** ..Location object=NEW.YORK-JOHN.F.KENNEDY.INTL.AP_NY_USA WMO=744860
   **   ~~~   ** ..Weather File Location=Shanghai Shanghai CHN CSWD WMO#=583620
   **   ~~~   ** ..due to location differences, Latitude difference=[9.26] degrees, Longitude difference=[195.25] degrees.
   **   ~~~   ** ..Time Zone difference=[13.0] hour(s), Elevation difference=[21.43] percent, [1.50] meters.
   ** Warning ** ProcessScheduleInput: Schedule:Constant="AHU-2 MAX OA FRACTION", Blank Schedule Type Limits Name input -- will not be validated.
   ** Warning ** CheckUsedConstructions: There are 25 nominally unused constructions in input.
   **   ~~~   ** Each Unused construction is shown.
   ************* Construction=AIR_WALL
   ************* Construction=DROPCEILING
   ************* Construction=OPAQUEDOOR
   ************* Construction=ATTICROOFDECK
   ************* Construction=EXT_SLAB_8IN_WITH_CARPET
   ************* Construction=EXT_SLAB_8IN
   ************* Construction=EXT_SLAB_6IN_WITH_CARPET
   ************* Construction=EXT_SLAB_6IN
   ************* Construction=BASEMENT_WALL
   ************* Construction=INT_WOOD_FLOOR
   ************* Construction=EXT_SOFFIT_FLOOR
   ************* Construction=RES_ROOF
   ************* Construction=SEMIHEATED_ROOF
   ************* Construction=RES_EXT_WALL_GRD
   ************* Construction=RES_EXT_WALL_MID
   ************* Construction=RES_EXT_WALL_TOP
   ************* Construction=SEMIHEATED_EXT_WALL_GRD
   ************* Construction=SEMIHEATED_EXT_WALL_MID
   ************* Construction=SEMIHEATED_EXT_WALL_TOP
   ************* Construction=NONRES_FLOOR
   ************* Construction=RES_FLOOR
   ************* Construction=SEMIHEATED_FLOOR
   ************* Construction=NONRES_FLOOR_CEILING
   ************* Construction=RES_FLOOR_CEILING
   ************* Construction=SEMIHEATED_FLOOR_CEILING
   ** Warning ** GetInternalHeatGains: People="FLOOR 2 STORAGE 1 PEOPLE" has comfort related schedules but no thermal comfort model selected.
   **   ~~~   ** If schedules are specified for air velocity, clothing insulation, and/or work efficiency but no thermal comfort
   **   ~~~   ** thermal comfort model is selected, the schedules will be listed as unused schedules in the .err file.
   **   ~~~   ** To avoid these errors, select a valid thermal comfort model or eliminate these schedules in the PEOPLE input.
   ** Warning ** GetInternalHeatGains: People="FLOOR 2 STORAGE 2 PEOPLE" has comfort related schedules but no thermal comfort model selected.
   **   ~~~   ** If schedules are specified for air velocity, clothing insulation, and/or work efficiency but no thermal comfort
   **   ~~~   ** thermal comfort model is selected, the schedules will be listed as unused schedules in the .err file.
   **   ~~~   ** To avoid these errors, select a valid thermal comfort model or eliminate these schedules in the PEOPLE input.
   ** Warning ** GetInternalHeatGains: People="FLOOR 2 STORAGE 3 PEOPLE" has comfort related schedules but no thermal comfort model selected.
   **   ~~~   ** If schedules are specified for air velocity, clothing insulation, and/or work efficiency but no thermal comfort
   **   ~~~   ** thermal comfort model is selected, the schedules will be listed as unused schedules in the .err file.
   **   ~~~   ** To avoid these errors, select a valid thermal comfort model or eliminate these schedules in the PEOPLE input.
   ** Warning ** GetInternalHeatGains: People="FLOOR 2 UTILITY PEOPLE" has comfort related schedules but no thermal comfort model selected.
   **   ~~~   ** If schedules are specified for air velocity, clothing insulation, and/or work efficiency but no thermal comfort
   **   ~~~   ** thermal comfort model is selected, the schedules will be listed as unused schedules in the .err file.
   **   ~~~   ** To avoid these errors, select a valid thermal comfort model or eliminate these schedules in the PEOPLE input.
   ** Warning ** GetInternalHeatGains: People="FLOOR 3 ELEVATOR HALL PEOPLE" has comfort related schedules but no thermal comfort model selected.
   **   ~~~   ** If schedules are specified for air velocity, clothing insulation, and/or work efficiency but no thermal comfort
   **   ~~~   ** thermal comfort model is selected, the schedules will be listed as unused schedules in the .err file.
   **   ~~~   ** To avoid these errors, select a valid thermal comfort model or eliminate these schedules in the PEOPLE input.
   ** Warning ** GetInternalHeatGains: People="FLOOR 3 JANITOR PEOPLE" has comfort related schedules but no thermal comfort model selected.
   **   ~~~   ** If schedules are specified for air velocity, clothing insulation, and/or work efficiency but no thermal comfort
   **   ~~~   ** thermal comfort model is selected, the schedules will be listed as unused schedules in the .err file.
   **   ~~~   ** To avoid these errors, select a valid thermal comfort model or eliminate these schedules in the PEOPLE input.
   ** Warning ** GetInternalHeatGains: People="FLOOR 3 LOUNGE TOILET PEOPLE" has comfort related schedules but no thermal comfort model selected.
   **   ~~~   ** If schedules are specified for air velocity, clothing insulation, and/or work efficiency but no thermal comfort
   **   ~~~   ** thermal comfort model is selected, the schedules will be listed as unused schedules in the .err file.
   **   ~~~   ** To avoid these errors, select a valid thermal comfort model or eliminate these schedules in the PEOPLE input.
   ** Warning ** GetInternalHeatGains: People="FLOOR 3 MECHANICAL PEOPLE" has comfort related schedules but no thermal comfort model selected.
   **   ~~~   ** If schedules are specified for air velocity, clothing insulation, and/or work efficiency but no thermal comfort
   **   ~~~   ** thermal comfort model is selected, the schedules will be listed as unused schedules in the .err file.
   **   ~~~   ** To avoid these errors, select a valid thermal comfort model or eliminate these schedules in the PEOPLE input.
   ** Warning ** GetInternalHeatGains: People="FLOOR 3 MECHANICAL HALL PEOPLE" has comfort related schedules but no thermal comfort model selected.
   **   ~~~   ** If schedules are specified for air velocity, clothing insulation, and/or work efficiency but no thermal comfort
   **   ~~~   ** thermal comfort model is selected, the schedules will be listed as unused schedules in the .err file.
   **   ~~~   ** To avoid these errors, select a valid thermal comfort model or eliminate these schedules in the PEOPLE input.
   ** Warning ** GetInternalHeatGains: People="FLOOR 3 OFFICE HALL PEOPLE" has comfort related schedules but no thermal comfort model selected.
   **   ~~~   ** If schedules are specified for air velocity, clothing insulation, and/or work efficiency but no thermal comfort
   **   ~~~   ** thermal comfort model is selected, the schedules will be listed as unused schedules in the .err file.
   **   ~~~   ** To avoid these errors, select a valid thermal comfort model or eliminate these schedules in the PEOPLE input.
   ** Warning ** GetInternalHeatGains: People="FLOOR 3 OFFICE TOILET PEOPLE" has comfort related schedules but no thermal comfort model selected.
   **   ~~~   ** If schedules are specified for air velocity, clothing insulation, and/or work efficiency but no thermal comfort
   **   ~~~   ** thermal comfort model is selected, the schedules will be listed as unused schedules in the .err file.
   **   ~~~   ** To avoid these errors, select a valid thermal comfort model or eliminate these schedules in the PEOPLE input.
   ** Warning ** GetInternalHeatGains: People="FLOOR 3 PHYSICAL THERAPY TOILET PEOPLE" has comfort related schedules but no thermal comfort model selected.
   **   ~~~   ** If schedules are specified for air velocity, clothing insulation, and/or work efficiency but no thermal comfort
   **   ~~~   ** thermal comfort model is selected, the schedules will be listed as unused schedules in the .err file.
   **   ~~~   ** To avoid these errors, select a valid thermal comfort model or eliminate these schedules in the PEOPLE input.
   ** Warning ** GetInternalHeatGains: People="FLOOR 3 STORAGE 1 PEOPLE" has comfort related schedules but no thermal comfort model selected.
   **   ~~~   ** If schedules are specified for air velocity, clothing insulation, and/or work efficiency but no thermal comfort
   **   ~~~   ** thermal comfort model is selected, the schedules will be listed as unused schedules in the .err file.
   **   ~~~   ** To avoid these errors, select a valid thermal comfort model or eliminate these schedules in the PEOPLE input.
   ** Warning ** GetInternalHeatGains: People="FLOOR 3 STORAGE 2 PEOPLE" has comfort related schedules but no thermal comfort model selected.
   **   ~~~   ** If schedules are specified for air velocity, clothing insulation, and/or work efficiency but no thermal comfort
   **   ~~~   ** thermal comfort model is selected, the schedules will be listed as unused schedules in the .err file.
   **   ~~~   ** To avoid these errors, select a valid thermal comfort model or eliminate these schedules in the PEOPLE input.
   ** Warning ** GetInternalHeatGains: People="FLOOR 3 UNDEVELOPED 1 PEOPLE" has comfort related schedules but no thermal comfort model selected.
   **   ~~~   ** If schedules are specified for air velocity, clothing insulation, and/or work efficiency but no thermal comfort
   **   ~~~   ** thermal comfort model is selected, the schedules will be listed as unused schedules in the .err file.
   **   ~~~   ** To avoid these errors, select a valid thermal comfort model or eliminate these schedules in the PEOPLE input.
   ** Warning ** GetInternalHeatGains: People="FLOOR 3 UNDEVELOPED 2 PEOPLE" has comfort related schedules but no thermal comfort model selected.
   **   ~~~   ** If schedules are specified for air velocity, clothing insulation, and/or work efficiency but no thermal comfort
   **   ~~~   ** thermal comfort model is selected, the schedules will be listed as unused schedules in the .err file.
   **   ~~~   ** To avoid these errors, select a valid thermal comfort model or eliminate these schedules in the PEOPLE input.
   ** Warning ** GetInternalHeatGains: People="FLOOR 3 UTILITY PEOPLE" has comfort related schedules but no thermal comfort model selected.
   **   ~~~   ** If schedules are specified for air velocity, clothing insulation, and/or work efficiency but no thermal comfort
   **   ~~~   ** thermal comfort model is selected, the schedules will be listed as unused schedules in the .err file.
   **   ~~~   ** To avoid these errors, select a valid thermal comfort model or eliminate these schedules in the PEOPLE input.
   ** Warning ** GetInternalHeatGains: People="NE STAIR PEOPLE" has comfort related schedules but no thermal comfort model selected.
   **   ~~~   ** If schedules are specified for air velocity, clothing insulation, and/or work efficiency but no thermal comfort
   **   ~~~   ** thermal comfort model is selected, the schedules will be listed as unused schedules in the .err file.
   **   ~~~   ** To avoid these errors, select a valid thermal comfort model or eliminate these schedules in the PEOPLE input.
   ** Warning ** GetInternalHeatGains: People="NW ELEVATOR PEOPLE" has comfort related schedules but no thermal comfort model selected.
   **   ~~~   ** If schedules are specified for air velocity, clothing insulation, and/or work efficiency but no thermal comfort
   **   ~~~   ** thermal comfort model is selected, the schedules will be listed as unused schedules in the .err file.
   **   ~~~   ** To avoid these errors, select a valid thermal comfort model or eliminate these schedules in the PEOPLE input.
   ** Warning ** GetInternalHeatGains: People="NW STAIR PEOPLE" has comfort related schedules but no thermal comfort model selected.
   **   ~~~   ** If schedules are specified for air velocity, clothing insulation, and/or work efficiency but no thermal comfort
   **   ~~~   ** thermal comfort model is selected, the schedules will be listed as unused schedules in the .err file.
   **   ~~~   ** To avoid these errors, select a valid thermal comfort model or eliminate these schedules in the PEOPLE input.
   ** Warning ** GetInternalHeatGains: People="SW STAIR PEOPLE" has comfort related schedules but no thermal comfort model selected.
   **   ~~~   ** If schedules are specified for air velocity, clothing insulation, and/or work efficiency but no thermal comfort
   **   ~~~   ** thermal comfort model is selected, the schedules will be listed as unused schedules in the .err file.
   **   ~~~   ** To avoid these errors, select a valid thermal comfort model or eliminate these schedules in the PEOPLE input.
   ** Warning ** GetDaylightingControls: Fraction of zone or space controlled by the Daylighting reference points is < 1.0.
   **   ~~~   ** ..discovered in Daylighting:Controls="FLOOR 2 RECEPTION_DAYLCTRL", only 0.770 of the zone or space is controlled.
   ** Warning ** GetDaylightingControls: Fraction of zone or space controlled by the Daylighting reference points is < 1.0.
   **   ~~~   ** ..discovered in Daylighting:Controls="FLOOR 3 OFFICE_DAYLCTRL", only 0.380 of the zone or space is controlled.
   ** Warning ** GetDaylightingControls: Fraction of zone or space controlled by the Daylighting reference points is < 1.0.
   **   ~~~   ** ..discovered in Daylighting:Controls="FLOOR 3 LOUNGE_DAYLCTRL", only 0.480 of the zone or space is controlled.
   ** Warning ** GetSimpleAirModelInputs: ZoneInfiltration:DesignFlowRate="FLOOR 3 DRESSING ROOM_INFILTRATION", Design Flow Rate Calculation Method specifies Flow Rate per Exterior Surface Area, but Exterior Wall Area = 0.  0 Infiltration will result.
   ** Warning ** GetSimpleAirModelInputs: ZoneInfiltration:DesignFlowRate="FLOOR 3 HUMID_INFILTRATION", Design Flow Rate Calculation Method specifies Flow Rate per Exterior Surface Area, but Exterior Wall Area = 0.  0 Infiltration will result.
   ** Warning ** GetSimpleAirModelInputs: ZoneInfiltration:DesignFlowRate="FLOOR 3 LOCKER_INFILTRATION", Design Flow Rate Calculation Method specifies Flow Rate per Exterior Surface Area, but Exterior Wall Area = 0.  0 Infiltration will result.
   ** Warning ** GetSimpleAirModelInputs: ZoneInfiltration:DesignFlowRate="FLOOR 3 MECHANICAL HALL_INFILTRATION", Design Flow Rate Calculation Method specifies Flow Rate per Exterior Surface Area, but Exterior Wall Area = 0.  0 Infiltration will result.
   ** Warning ** GetSimpleAirModelInputs: ZoneInfiltration:DesignFlowRate="FLOOR 3 PHYSICAL THERAPY 2_INFILTRATION", Design Flow Rate Calculation Method specifies Flow Rate per Exterior Surface Area, but Exterior Wall Area = 0.  0 Infiltration will result.
   ** Warning ** GetSimpleAirModelInputs: ZoneInfiltration:DesignFlowRate="FLOOR 3 PHYSICAL THERAPY TOILET_INFILTRATION", Design Flow Rate Calculation Method specifies Flow Rate per Exterior Surface Area, but Exterior Wall Area = 0.  0 Infiltration will result.
   ** Warning ** GetSimpleAirModelInputs: ZoneInfiltration:DesignFlowRate="FLOOR 3 STORAGE 1_INFILTRATION", Design Flow Rate Calculation Method specifies Flow Rate per Exterior Surface Area, but Exterior Wall Area = 0.  0 Infiltration will result.
   ** Warning ** GetSimpleAirModelInputs: ZoneInfiltration:DesignFlowRate="FLOOR 3 STORAGE 2_INFILTRATION", Design Flow Rate Calculation Method specifies Flow Rate per Exterior Surface Area, but Exterior Wall Area = 0.  0 Infiltration will result.
   ** Warning ** GetSimpleAirModelInputs: ZoneInfiltration:DesignFlowRate="FLOOR 3 TREATMENT_INFILTRATION", Design Flow Rate Calculation Method specifies Flow Rate per Exterior Surface Area, but Exterior Wall Area = 0.  0 Infiltration will result.
   ** Warning ** GetSimpleAirModelInputs: ZoneInfiltration:DesignFlowRate="FLOOR 3 UTILITY_INFILTRATION", Design Flow Rate Calculation Method specifies Flow Rate per Exterior Surface Area, but Exterior Wall Area = 0.  0 Infiltration will result.
   ** Warning ** GeneratorController constructor ElectricLoadCenter:Generators, Availability Schedule for Generator:PVWatts 'PV_MODULE' will be be ignored (runs all the time).
   ** Warning ** Calculated design heating load for zone=FLOOR 1 CLEAN is zero.
   **   ~~~   ** Check Sizing:Zone and ZoneControl:Thermostat inputs.
   ** Warning ** Calculated design heating load for zone=FLOOR 1 CLEAN WORK is zero.
   **   ~~~   ** Check Sizing:Zone and ZoneControl:Thermostat inputs.
   ** Warning ** Calculated design heating load for zone=FLOOR 1 DICTATION is zero.
   **   ~~~   ** Check Sizing:Zone and ZoneControl:Thermostat inputs.
   ** Warning ** Calculated design heating load for zone=FLOOR 1 HUMID is zero.
   **   ~~~   ** Check Sizing:Zone and ZoneControl:Thermostat inputs.
   ** Warning ** Calculated design heating load for zone=FLOOR 1 IT HALL is zero.
   **   ~~~   ** Check Sizing:Zone and ZoneControl:Thermostat inputs.
   ** Warning ** Calculated design heating load for zone=FLOOR 1 LOBBY HALL is zero.
   **   ~~~   ** Check Sizing:Zone and ZoneControl:Thermostat inputs.
   ** Warning ** Calculated design heating load for zone=FLOOR 1 LOCKER ROOM is zero.
   **   ~~~   ** Check Sizing:Zone and ZoneControl:Thermostat inputs.
   ** Warning ** Calculated design heating load for zone=FLOOR 1 LOCKER ROOM HALL is zero.
   **   ~~~   ** Check Sizing:Zone and ZoneControl:Thermostat inputs.
   ** Warning ** Calculated design heating load for zone=FLOOR 1 LOUNGE is zero.
   **   ~~~   ** Check Sizing:Zone and ZoneControl:Thermostat inputs.
   ** Warning ** Calculated design heating load for zone=FLOOR 1 MRI CONTROL ROOM is zero.
   **   ~~~   ** Check Sizing:Zone and ZoneControl:Thermostat inputs.
   ** Warning ** Calculated design heating load for zone=FLOOR 1 MRI HALL is zero.
   **   ~~~   ** Check Sizing:Zone and ZoneControl:Thermostat inputs.
   ** Warning ** Calculated design heating load for zone=FLOOR 1 MRI ROOM is zero.
   **   ~~~   ** Check Sizing:Zone and ZoneControl:Thermostat inputs.
   ** Warning ** Calculated design heating load for zone=FLOOR 1 NOURISHMENT is zero.
   **   ~~~   ** Check Sizing:Zone and ZoneControl:Thermostat inputs.
   ** Warning ** Calculated design heating load for zone=FLOOR 1 NURSE JANITOR is zero.
   **   ~~~   ** Check Sizing:Zone and ZoneControl:Thermostat inputs.
   ** Warning ** Calculated design heating load for zone=FLOOR 1 NURSE STATION is zero.
   **   ~~~   ** Check Sizing:Zone and ZoneControl:Thermostat inputs.
   ** Warning ** Calculated design heating load for zone=FLOOR 1 NURSE TOILET is zero.
   **   ~~~   ** Check Sizing:Zone and ZoneControl:Thermostat inputs.
   ** Warning ** Calculated design heating load for zone=FLOOR 1 OFFICE is zero.
   **   ~~~   ** Check Sizing:Zone and ZoneControl:Thermostat inputs.
   ** Warning ** Calculated design heating load for zone=FLOOR 1 OPERATING ROOM 1 is zero.
   **   ~~~   ** Check Sizing:Zone and ZoneControl:Thermostat inputs.
   ** Warning ** Calculated design heating load for zone=FLOOR 1 OPERATING ROOM 2 is zero.
   **   ~~~   ** Check Sizing:Zone and ZoneControl:Thermostat inputs.
   ** Warning ** Calculated design heating load for zone=FLOOR 1 OPERATING ROOM 3 is zero.
   **   ~~~   ** Check Sizing:Zone and ZoneControl:Thermostat inputs.
   ** Warning ** Calculated design heating load for zone=FLOOR 1 PACU is zero.
   **   ~~~   ** Check Sizing:Zone and ZoneControl:Thermostat inputs.
   ** Warning ** Calculated design heating load for zone=FLOOR 1 PRE-OP HALL is zero.
   **   ~~~   ** Check Sizing:Zone and ZoneControl:Thermostat inputs.
   ** Warning ** Calculated design heating load for zone=FLOOR 1 PRE-OP ROOM 1 is zero.
   **   ~~~   ** Check Sizing:Zone and ZoneControl:Thermostat inputs.
   ** Warning ** Calculated design heating load for zone=FLOOR 1 PRE-OP ROOM 2 is zero.
   **   ~~~   ** Check Sizing:Zone and ZoneControl:Thermostat inputs.
   ** Warning ** Calculated design heating load for zone=FLOOR 1 RECEPTION is zero.
   **   ~~~   ** Check Sizing:Zone and ZoneControl:Thermostat inputs.
   ** Warning ** Calculated design heating load for zone=FLOOR 1 RECEPTION HALL is zero.
   **   ~~~   ** Check Sizing:Zone and ZoneControl:Thermostat inputs.
   ** Warning ** Calculated design heating load for zone=FLOOR 1 SOIL is zero.
   **   ~~~   ** Check Sizing:Zone and ZoneControl:Thermostat inputs.
   ** Warning ** Calculated design heating load for zone=FLOOR 1 SOIL WORK is zero.
   **   ~~~   ** Check Sizing:Zone and ZoneControl:Thermostat inputs.
   ** Warning ** Calculated design heating load for zone=FLOOR 1 STERILE STORAGE is zero.
   **   ~~~   ** Check Sizing:Zone and ZoneControl:Thermostat inputs.
   ** Warning ** Calculated design heating load for zone=FLOOR 2 DICTATION is zero.
   **   ~~~   ** Check Sizing:Zone and ZoneControl:Thermostat inputs.
   ** Warning ** Calculated design heating load for zone=FLOOR 2 LOUNGE is zero.
   **   ~~~   ** Check Sizing:Zone and ZoneControl:Thermostat inputs.
   ** Warning ** Calculated design heating load for zone=FLOOR 2 NURSE STATION 1 is zero.
   **   ~~~   ** Check Sizing:Zone and ZoneControl:Thermostat inputs.
   ** Warning ** Calculated design heating load for zone=FLOOR 2 NURSE STATION 2 is zero.
   **   ~~~   ** Check Sizing:Zone and ZoneControl:Thermostat inputs.
   ** Warning ** Calculated design heating load for zone=FLOOR 2 RECEPTION HALL is zero.
   **   ~~~   ** Check Sizing:Zone and ZoneControl:Thermostat inputs.
   ** Warning ** Calculated design heating load for zone=FLOOR 2 SCHEDULING 1 is zero.
   **   ~~~   ** Check Sizing:Zone and ZoneControl:Thermostat inputs.
   ** Warning ** Calculated design heating load for zone=FLOOR 2 SCHEDULING 2 is zero.
   **   ~~~   ** Check Sizing:Zone and ZoneControl:Thermostat inputs.
   ** Warning ** Calculated design heating load for zone=FLOOR 2 WORK HALL is zero.
   **   ~~~   ** Check Sizing:Zone and ZoneControl:Thermostat inputs.
   ** Warning ** Calculated design heating load for zone=FLOOR 2 X-RAY is zero.
   **   ~~~   ** Check Sizing:Zone and ZoneControl:Thermostat inputs.
   ** Warning ** Calculated design heating load for zone=FLOOR 3 DRESSING ROOM is zero.
   **   ~~~   ** Check Sizing:Zone and ZoneControl:Thermostat inputs.
   ** Warning ** Calculated design heating load for zone=FLOOR 3 HUMID is zero.
   **   ~~~   ** Check Sizing:Zone and ZoneControl:Thermostat inputs.
   ************* Beginning System Sizing Calculations
   ** Warning ** Since Zone Minimum Air Flow Input Method = CONSTANT, input for Fixed Minimum Air Flow Rate will be ignored.
   **   ~~~   ** Occurs in AirTerminal:SingleDuct:VAV:Reheat = NE STAIR TERMINAL
   ** Warning ** Since Zone Minimum Air Flow Input Method = CONSTANT, input for Fixed Minimum Air Flow Rate will be ignored.
   **   ~~~   ** Occurs in AirTerminal:SingleDuct:VAV:Reheat = NW ELEVATOR TERMINAL
   ** Warning ** Since Zone Minimum Air Flow Input Method = CONSTANT, input for Fixed Minimum Air Flow Rate will be ignored.
   **   ~~~   ** Occurs in AirTerminal:SingleDuct:VAV:Reheat = NW STAIR TERMINAL
   ** Warning ** Since Zone Minimum Air Flow Input Method = CONSTANT, input for Fixed Minimum Air Flow Rate will be ignored.
   **   ~~~   ** Occurs in AirTerminal:SingleDuct:VAV:Reheat = SW STAIR TERMINAL
   ** Warning ** Since Zone Minimum Air Flow Input Method = CONSTANT, input for Fixed Minimum Air Flow Rate will be ignored.
   **   ~~~   ** Occurs in AirTerminal:SingleDuct:VAV:Reheat = FLOOR 1 ANESTHESIA TERMINAL
   ** Warning ** Since Zone Minimum Air Flow Input Method = CONSTANT, input for Fixed Minimum Air Flow Rate will be ignored.
   **   ~~~   ** Occurs in AirTerminal:SingleDuct:VAV:Reheat = FLOOR 1 BIO HAZ TERMINAL
   ** Warning ** Since Zone Minimum Air Flow Input Method = CONSTANT, input for Fixed Minimum Air Flow Rate will be ignored.
   **   ~~~   ** Occurs in AirTerminal:SingleDuct:VAV:Reheat = FLOOR 1 CAFE TERMINAL
   ** Warning ** Since Zone Minimum Air Flow Input Method = CONSTANT, input for Fixed Minimum Air Flow Rate will be ignored.
   **   ~~~   ** Occurs in AirTerminal:SingleDuct:VAV:Reheat = FLOOR 1 CLEAN TERMINAL
   ** Warning ** Since Zone Minimum Air Flow Input Method = CONSTANT, input for Fixed Minimum Air Flow Rate will be ignored.
   **   ~~~   ** Occurs in AirTerminal:SingleDuct:VAV:Reheat = FLOOR 1 CLEAN WORK TERMINAL
   ** Warning ** Since Zone Minimum Air Flow Input Method = CONSTANT, input for Fixed Minimum Air Flow Rate will be ignored.
   **   ~~~   ** Occurs in AirTerminal:SingleDuct:VAV:Reheat = FLOOR 1 DICTATION TERMINAL
   ** Warning ** Since Zone Minimum Air Flow Input Method = CONSTANT, input for Fixed Minimum Air Flow Rate will be ignored.
   **   ~~~   ** Occurs in AirTerminal:SingleDuct:VAV:Reheat = FLOOR 1 DRESSING ROOM TERMINAL
   ** Warning ** Since Zone Minimum Air Flow Input Method = CONSTANT, input for Fixed Minimum Air Flow Rate will be ignored.
   **   ~~~   ** Occurs in AirTerminal:SingleDuct:VAV:Reheat = FLOOR 1 ELECTRICAL ROOM TERMINAL
   ** Warning ** Since Zone Minimum Air Flow Input Method = CONSTANT, input for Fixed Minimum Air Flow Rate will be ignored.
   **   ~~~   ** Occurs in AirTerminal:SingleDuct:VAV:Reheat = FLOOR 1 ELEVATOR PUMP ROOM TERMINAL
   ** Warning ** Since Zone Minimum Air Flow Input Method = CONSTANT, input for Fixed Minimum Air Flow Rate will be ignored.
   **   ~~~   ** Occurs in AirTerminal:SingleDuct:VAV:Reheat = FLOOR 1 HUMID TERMINAL
   ** Warning ** Since Zone Minimum Air Flow Input Method = CONSTANT, input for Fixed Minimum Air Flow Rate will be ignored.
   **   ~~~   ** Occurs in AirTerminal:SingleDuct:VAV:Reheat = FLOOR 1 IT HALL TERMINAL
   ** Warning ** Since Zone Minimum Air Flow Input Method = CONSTANT, input for Fixed Minimum Air Flow Rate will be ignored.
   **   ~~~   ** Occurs in AirTerminal:SingleDuct:VAV:Reheat = FLOOR 1 IT ROOM TERMINAL
   ** Warning ** Since Zone Minimum Air Flow Input Method = CONSTANT, input for Fixed Minimum Air Flow Rate will be ignored.
   **   ~~~   ** Occurs in AirTerminal:SingleDuct:VAV:Reheat = FLOOR 1 LOBBY TERMINAL
   ** Warning ** Since Zone Minimum Air Flow Input Method = CONSTANT, input for Fixed Minimum Air Flow Rate will be ignored.
   **   ~~~   ** Occurs in AirTerminal:SingleDuct:VAV:Reheat = FLOOR 1 LOBBY HALL TERMINAL
   ** Warning ** Since Zone Minimum Air Flow Input Method = CONSTANT, input for Fixed Minimum Air Flow Rate will be ignored.
   **   ~~~   ** Occurs in AirTerminal:SingleDuct:VAV:Reheat = FLOOR 1 LOBBY TOILET TERMINAL
   ** Warning ** Since Zone Minimum Air Flow Input Method = CONSTANT, input for Fixed Minimum Air Flow Rate will be ignored.
   **   ~~~   ** Occurs in AirTerminal:SingleDuct:VAV:Reheat = FLOOR 1 LOCKER ROOM TERMINAL
   ** Warning ** Since Zone Minimum Air Flow Input Method = CONSTANT, input for Fixed Minimum Air Flow Rate will be ignored.
   **   ~~~   ** Occurs in AirTerminal:SingleDuct:VAV:Reheat = FLOOR 1 LOCKER ROOM HALL TERMINAL
   ** Warning ** Since Zone Minimum Air Flow Input Method = CONSTANT, input for Fixed Minimum Air Flow Rate will be ignored.
   **   ~~~   ** Occurs in AirTerminal:SingleDuct:VAV:Reheat = FLOOR 1 LOUNGE TERMINAL
   ** Warning ** Since Zone Minimum Air Flow Input Method = CONSTANT, input for Fixed Minimum Air Flow Rate will be ignored.
   **   ~~~   ** Occurs in AirTerminal:SingleDuct:VAV:Reheat = FLOOR 1 MED GAS TERMINAL
   ** Warning ** Since Zone Minimum Air Flow Input Method = CONSTANT, input for Fixed Minimum Air Flow Rate will be ignored.
   **   ~~~   ** Occurs in AirTerminal:SingleDuct:VAV:Reheat = FLOOR 1 MRI CONTROL ROOM TERMINAL
   ** Warning ** Since Zone Minimum Air Flow Input Method = CONSTANT, input for Fixed Minimum Air Flow Rate will be ignored.
   **   ~~~   ** Occurs in AirTerminal:SingleDuct:VAV:Reheat = FLOOR 1 MRI HALL TERMINAL
   ** Warning ** Since Zone Minimum Air Flow Input Method = CONSTANT, input for Fixed Minimum Air Flow Rate will be ignored.
   **   ~~~   ** Occurs in AirTerminal:SingleDuct:VAV:Reheat = FLOOR 1 MRI ROOM TERMINAL
   ** Warning ** Since Zone Minimum Air Flow Input Method = CONSTANT, input for Fixed Minimum Air Flow Rate will be ignored.
   **   ~~~   ** Occurs in AirTerminal:SingleDuct:VAV:Reheat = FLOOR 1 MRI TOILET TERMINAL
   ** Warning ** Since Zone Minimum Air Flow Input Method = CONSTANT, input for Fixed Minimum Air Flow Rate will be ignored.
   **   ~~~   ** Occurs in AirTerminal:SingleDuct:VAV:Reheat = FLOOR 1 NOURISHMENT TERMINAL
   ** Warning ** Since Zone Minimum Air Flow Input Method = CONSTANT, input for Fixed Minimum Air Flow Rate will be ignored.
   **   ~~~   ** Occurs in AirTerminal:SingleDuct:VAV:Reheat = FLOOR 1 NURSE HALL TERMINAL
   ** Warning ** Since Zone Minimum Air Flow Input Method = CONSTANT, input for Fixed Minimum Air Flow Rate will be ignored.
   **   ~~~   ** Occurs in AirTerminal:SingleDuct:VAV:Reheat = FLOOR 1 NURSE JANITOR TERMINAL
   ** Warning ** Since Zone Minimum Air Flow Input Method = CONSTANT, input for Fixed Minimum Air Flow Rate will be ignored.
   **   ~~~   ** Occurs in AirTerminal:SingleDuct:VAV:Reheat = FLOOR 1 NURSE STATION TERMINAL
   ** Warning ** Since Zone Minimum Air Flow Input Method = CONSTANT, input for Fixed Minimum Air Flow Rate will be ignored.
   **   ~~~   ** Occurs in AirTerminal:SingleDuct:VAV:Reheat = FLOOR 1 NURSE TOILET TERMINAL
   ** Warning ** Since Zone Minimum Air Flow Input Method = CONSTANT, input for Fixed Minimum Air Flow Rate will be ignored.
   **   ~~~   ** Occurs in AirTerminal:SingleDuct:VAV:Reheat = FLOOR 1 OFFICE TERMINAL
   ** Warning ** Since Zone Minimum Air Flow Input Method = CONSTANT, input for Fixed Minimum Air Flow Rate will be ignored.
   **   ~~~   ** Occurs in AirTerminal:SingleDuct:VAV:Reheat = FLOOR 1 OPERATING ROOM 1 TERMINAL
   ** Warning ** Since Zone Minimum Air Flow Input Method = CONSTANT, input for Fixed Minimum Air Flow Rate will be ignored.
   **   ~~~   ** Occurs in AirTerminal:SingleDuct:VAV:Reheat = FLOOR 1 OPERATING ROOM 2 TERMINAL
   ** Warning ** Since Zone Minimum Air Flow Input Method = CONSTANT, input for Fixed Minimum Air Flow Rate will be ignored.
   **   ~~~   ** Occurs in AirTerminal:SingleDuct:VAV:Reheat = FLOOR 1 OPERATING ROOM 3 TERMINAL
   ** Warning ** Since Zone Minimum Air Flow Input Method = CONSTANT, input for Fixed Minimum Air Flow Rate will be ignored.
   **   ~~~   ** Occurs in AirTerminal:SingleDuct:VAV:Reheat = FLOOR 1 PACU TERMINAL
   ** Warning ** Since Zone Minimum Air Flow Input Method = CONSTANT, input for Fixed Minimum Air Flow Rate will be ignored.
   **   ~~~   ** Occurs in AirTerminal:SingleDuct:VAV:Reheat = FLOOR 1 PRE-OP HALL TERMINAL
   ** Warning ** Since Zone Minimum Air Flow Input Method = CONSTANT, input for Fixed Minimum Air Flow Rate will be ignored.
   **   ~~~   ** Occurs in AirTerminal:SingleDuct:VAV:Reheat = FLOOR 1 PRE-OP ROOM 1 TERMINAL
   ** Warning ** Since Zone Minimum Air Flow Input Method = CONSTANT, input for Fixed Minimum Air Flow Rate will be ignored.
   **   ~~~   ** Occurs in AirTerminal:SingleDuct:VAV:Reheat = FLOOR 1 PRE-OP ROOM 2 TERMINAL
   ** Warning ** Since Zone Minimum Air Flow Input Method = CONSTANT, input for Fixed Minimum Air Flow Rate will be ignored.
   **   ~~~   ** Occurs in AirTerminal:SingleDuct:VAV:Reheat = FLOOR 1 PRE-OP TOILET TERMINAL
   ** Warning ** Since Zone Minimum Air Flow Input Method = CONSTANT, input for Fixed Minimum Air Flow Rate will be ignored.
   **   ~~~   ** Occurs in AirTerminal:SingleDuct:VAV:Reheat = FLOOR 1 PROCEDURE ROOM TERMINAL
   ** Warning ** Since Zone Minimum Air Flow Input Method = CONSTANT, input for Fixed Minimum Air Flow Rate will be ignored.
   **   ~~~   ** Occurs in AirTerminal:SingleDuct:VAV:Reheat = FLOOR 1 RECEPTION TERMINAL
   ** Warning ** Since Zone Minimum Air Flow Input Method = CONSTANT, input for Fixed Minimum Air Flow Rate will be ignored.
   **   ~~~   ** Occurs in AirTerminal:SingleDuct:VAV:Reheat = FLOOR 1 RECEPTION HALL TERMINAL
   ** Warning ** Since Zone Minimum Air Flow Input Method = CONSTANT, input for Fixed Minimum Air Flow Rate will be ignored.
   **   ~~~   ** Occurs in AirTerminal:SingleDuct:VAV:Reheat = FLOOR 1 RECOVERY ROOM TERMINAL
   ** Warning ** Since Zone Minimum Air Flow Input Method = CONSTANT, input for Fixed Minimum Air Flow Rate will be ignored.
   **   ~~~   ** Occurs in AirTerminal:SingleDuct:VAV:Reheat = FLOOR 1 SCHEDULING TERMINAL
   ** Warning ** Since Zone Minimum Air Flow Input Method = CONSTANT, input for Fixed Minimum Air Flow Rate will be ignored.
   **   ~~~   ** Occurs in AirTerminal:SingleDuct:VAV:Reheat = FLOOR 1 SCRUB TERMINAL
   ** Warning ** Since Zone Minimum Air Flow Input Method = CONSTANT, input for Fixed Minimum Air Flow Rate will be ignored.
   **   ~~~   ** Occurs in AirTerminal:SingleDuct:VAV:Reheat = FLOOR 1 SOIL TERMINAL
   ** Warning ** Since Zone Minimum Air Flow Input Method = CONSTANT, input for Fixed Minimum Air Flow Rate will be ignored.
   **   ~~~   ** Occurs in AirTerminal:SingleDuct:VAV:Reheat = FLOOR 1 SOIL HOLD TERMINAL
   ** Warning ** Since Zone Minimum Air Flow Input Method = CONSTANT, input for Fixed Minimum Air Flow Rate will be ignored.
   **   ~~~   ** Occurs in AirTerminal:SingleDuct:VAV:Reheat = FLOOR 1 SOIL WORK TERMINAL
   ** Warning ** Since Zone Minimum Air Flow Input Method = CONSTANT, input for Fixed Minimum Air Flow Rate will be ignored.
   **   ~~~   ** Occurs in AirTerminal:SingleDuct:VAV:Reheat = FLOOR 1 STEP DOWN TERMINAL
   ** Warning ** Since Zone Minimum Air Flow Input Method = CONSTANT, input for Fixed Minimum Air Flow Rate will be ignored.
   **   ~~~   ** Occurs in AirTerminal:SingleDuct:VAV:Reheat = FLOOR 1 STERILE HALL TERMINAL
   ** Warning ** Since Zone Minimum Air Flow Input Method = CONSTANT, input for Fixed Minimum Air Flow Rate will be ignored.
   **   ~~~   ** Occurs in AirTerminal:SingleDuct:VAV:Reheat = FLOOR 1 STERILE STORAGE TERMINAL
   ** Warning ** Since Zone Minimum Air Flow Input Method = CONSTANT, input for Fixed Minimum Air Flow Rate will be ignored.
   **   ~~~   ** Occurs in AirTerminal:SingleDuct:VAV:Reheat = FLOOR 1 STORAGE TERMINAL
   ** Warning ** Since Zone Minimum Air Flow Input Method = CONSTANT, input for Fixed Minimum Air Flow Rate will be ignored.
   **   ~~~   ** Occurs in AirTerminal:SingleDuct:VAV:Reheat = FLOOR 1 SUB-STERILE TERMINAL
   ** Warning ** Since Zone Minimum Air Flow Input Method = CONSTANT, input for Fixed Minimum Air Flow Rate will be ignored.
   **   ~~~   ** Occurs in AirTerminal:SingleDuct:VAV:Reheat = FLOOR 1 UTILITY HALL TERMINAL
   ** Warning ** Since Zone Minimum Air Flow Input Method = CONSTANT, input for Fixed Minimum Air Flow Rate will be ignored.
   **   ~~~   ** Occurs in AirTerminal:SingleDuct:VAV:Reheat = FLOOR 1 UTILITY JANITOR TERMINAL
   ** Warning ** Since Zone Minimum Air Flow Input Method = CONSTANT, input for Fixed Minimum Air Flow Rate will be ignored.
   **   ~~~   ** Occurs in AirTerminal:SingleDuct:VAV:Reheat = FLOOR 1 UTILITY ROOM TERMINAL
   ** Warning ** Since Zone Minimum Air Flow Input Method = CONSTANT, input for Fixed Minimum Air Flow Rate will be ignored.
   **   ~~~   ** Occurs in AirTerminal:SingleDuct:VAV:Reheat = FLOOR 1 VESTIBULE TERMINAL
   ** Warning ** Since Zone Minimum Air Flow Input Method = CONSTANT, input for Fixed Minimum Air Flow Rate will be ignored.
   **   ~~~   ** Occurs in AirTerminal:SingleDuct:VAV:Reheat = FLOOR 2 CONFERENCE TERMINAL
   ** Warning ** Since Zone Minimum Air Flow Input Method = CONSTANT, input for Fixed Minimum Air Flow Rate will be ignored.
   **   ~~~   ** Occurs in AirTerminal:SingleDuct:VAV:Reheat = FLOOR 2 CONFERENCE TOILET TERMINAL
   ** Warning ** Since Zone Minimum Air Flow Input Method = CONSTANT, input for Fixed Minimum Air Flow Rate will be ignored.
   **   ~~~   ** Occurs in AirTerminal:SingleDuct:VAV:Reheat = FLOOR 2 DICTATION TERMINAL
   ** Warning ** Since Zone Minimum Air Flow Input Method = CONSTANT, input for Fixed Minimum Air Flow Rate will be ignored.
   **   ~~~   ** Occurs in AirTerminal:SingleDuct:VAV:Reheat = FLOOR 2 EXAM 1 TERMINAL
   ** Warning ** Since Zone Minimum Air Flow Input Method = CONSTANT, input for Fixed Minimum Air Flow Rate will be ignored.
   **   ~~~   ** Occurs in AirTerminal:SingleDuct:VAV:Reheat = FLOOR 2 EXAM 2 TERMINAL
   ** Warning ** Since Zone Minimum Air Flow Input Method = CONSTANT, input for Fixed Minimum Air Flow Rate will be ignored.
   **   ~~~   ** Occurs in AirTerminal:SingleDuct:VAV:Reheat = FLOOR 2 EXAM 3 TERMINAL
   ** Warning ** Since Zone Minimum Air Flow Input Method = CONSTANT, input for Fixed Minimum Air Flow Rate will be ignored.
   **   ~~~   ** Occurs in AirTerminal:SingleDuct:VAV:Reheat = FLOOR 2 EXAM 4 TERMINAL
   ** Warning ** Since Zone Minimum Air Flow Input Method = CONSTANT, input for Fixed Minimum Air Flow Rate will be ignored.
   **   ~~~   ** Occurs in AirTerminal:SingleDuct:VAV:Reheat = FLOOR 2 EXAM 5 TERMINAL
   ** Warning ** Since Zone Minimum Air Flow Input Method = CONSTANT, input for Fixed Minimum Air Flow Rate will be ignored.
   **   ~~~   ** Occurs in AirTerminal:SingleDuct:VAV:Reheat = FLOOR 2 EXAM 6 TERMINAL
   ** Warning ** Since Zone Minimum Air Flow Input Method = CONSTANT, input for Fixed Minimum Air Flow Rate will be ignored.
   **   ~~~   ** Occurs in AirTerminal:SingleDuct:VAV:Reheat = FLOOR 2 EXAM 7 TERMINAL
   ** Warning ** Since Zone Minimum Air Flow Input Method = CONSTANT, input for Fixed Minimum Air Flow Rate will be ignored.
   **   ~~~   ** Occurs in AirTerminal:SingleDuct:VAV:Reheat = FLOOR 2 EXAM 8 TERMINAL
   ** Warning ** Since Zone Minimum Air Flow Input Method = CONSTANT, input for Fixed Minimum Air Flow Rate will be ignored.
   **   ~~~   ** Occurs in AirTerminal:SingleDuct:VAV:Reheat = FLOOR 2 EXAM 9 TERMINAL
   ** Warning ** Since Zone Minimum Air Flow Input Method = CONSTANT, input for Fixed Minimum Air Flow Rate will be ignored.
   **   ~~~   ** Occurs in AirTerminal:SingleDuct:VAV:Reheat = FLOOR 2 EXAM HALL 1 TERMINAL
   ** Warning ** Since Zone Minimum Air Flow Input Method = CONSTANT, input for Fixed Minimum Air Flow Rate will be ignored.
   **   ~~~   ** Occurs in AirTerminal:SingleDuct:VAV:Reheat = FLOOR 2 EXAM HALL 2 TERMINAL
   ** Warning ** Since Zone Minimum Air Flow Input Method = CONSTANT, input for Fixed Minimum Air Flow Rate will be ignored.
   **   ~~~   ** Occurs in AirTerminal:SingleDuct:VAV:Reheat = FLOOR 2 EXAM HALL 3 TERMINAL
   ** Warning ** Since Zone Minimum Air Flow Input Method = CONSTANT, input for Fixed Minimum Air Flow Rate will be ignored.
   **   ~~~   ** Occurs in AirTerminal:SingleDuct:VAV:Reheat = FLOOR 2 EXAM HALL 4 TERMINAL
   ** Warning ** Since Zone Minimum Air Flow Input Method = CONSTANT, input for Fixed Minimum Air Flow Rate will be ignored.
   **   ~~~   ** Occurs in AirTerminal:SingleDuct:VAV:Reheat = FLOOR 2 EXAM HALL 5 TERMINAL
   ** Warning ** Since Zone Minimum Air Flow Input Method = CONSTANT, input for Fixed Minimum Air Flow Rate will be ignored.
   **   ~~~   ** Occurs in AirTerminal:SingleDuct:VAV:Reheat = FLOOR 2 EXAM HALL 6 TERMINAL
   ** Warning ** Since Zone Minimum Air Flow Input Method = CONSTANT, input for Fixed Minimum Air Flow Rate will be ignored.
   **   ~~~   ** Occurs in AirTerminal:SingleDuct:VAV:Reheat = FLOOR 2 JANITOR TERMINAL
   ** Warning ** Since Zone Minimum Air Flow Input Method = CONSTANT, input for Fixed Minimum Air Flow Rate will be ignored.
   **   ~~~   ** Occurs in AirTerminal:SingleDuct:VAV:Reheat = FLOOR 2 LOUNGE TERMINAL
   ** Warning ** Since Zone Minimum Air Flow Input Method = CONSTANT, input for Fixed Minimum Air Flow Rate will be ignored.
   **   ~~~   ** Occurs in AirTerminal:SingleDuct:VAV:Reheat = FLOOR 2 NURSE STATION 1 TERMINAL
   ** Warning ** Since Zone Minimum Air Flow Input Method = CONSTANT, input for Fixed Minimum Air Flow Rate will be ignored.
   **   ~~~   ** Occurs in AirTerminal:SingleDuct:VAV:Reheat = FLOOR 2 NURSE STATION 2 TERMINAL
   ** Warning ** Since Zone Minimum Air Flow Input Method = CONSTANT, input for Fixed Minimum Air Flow Rate will be ignored.
   **   ~~~   ** Occurs in AirTerminal:SingleDuct:VAV:Reheat = FLOOR 2 OFFICE TERMINAL
   ** Warning ** Since Zone Minimum Air Flow Input Method = CONSTANT, input for Fixed Minimum Air Flow Rate will be ignored.
   **   ~~~   ** Occurs in AirTerminal:SingleDuct:VAV:Reheat = FLOOR 2 OFFICE HALL TERMINAL
   ** Warning ** Since Zone Minimum Air Flow Input Method = CONSTANT, input for Fixed Minimum Air Flow Rate will be ignored.
   **   ~~~   ** Occurs in AirTerminal:SingleDuct:VAV:Reheat = FLOOR 2 RECEPTION TERMINAL
   ** Warning ** Since Zone Minimum Air Flow Input Method = CONSTANT, input for Fixed Minimum Air Flow Rate will be ignored.
   **   ~~~   ** Occurs in AirTerminal:SingleDuct:VAV:Reheat = FLOOR 2 RECEPTION HALL TERMINAL
   ** Warning ** Since Zone Minimum Air Flow Input Method = CONSTANT, input for Fixed Minimum Air Flow Rate will be ignored.
   **   ~~~   ** Occurs in AirTerminal:SingleDuct:VAV:Reheat = FLOOR 2 RECEPTION TOILET TERMINAL
   ** Warning ** Since Zone Minimum Air Flow Input Method = CONSTANT, input for Fixed Minimum Air Flow Rate will be ignored.
   **   ~~~   ** Occurs in AirTerminal:SingleDuct:VAV:Reheat = FLOOR 2 SCHEDULING 1 TERMINAL
   ** Warning ** Since Zone Minimum Air Flow Input Method = CONSTANT, input for Fixed Minimum Air Flow Rate will be ignored.
   **   ~~~   ** Occurs in AirTerminal:SingleDuct:VAV:Reheat = FLOOR 2 SCHEDULING 2 TERMINAL
   ** Warning ** Since Zone Minimum Air Flow Input Method = CONSTANT, input for Fixed Minimum Air Flow Rate will be ignored.
   **   ~~~   ** Occurs in AirTerminal:SingleDuct:VAV:Reheat = FLOOR 2 STORAGE 1 TERMINAL
   ** Warning ** Since Zone Minimum Air Flow Input Method = CONSTANT, input for Fixed Minimum Air Flow Rate will be ignored.
   **   ~~~   ** Occurs in AirTerminal:SingleDuct:VAV:Reheat = FLOOR 2 STORAGE 2 TERMINAL
   ** Warning ** Since Zone Minimum Air Flow Input Method = CONSTANT, input for Fixed Minimum Air Flow Rate will be ignored.
   **   ~~~   ** Occurs in AirTerminal:SingleDuct:VAV:Reheat = FLOOR 2 STORAGE 3 TERMINAL
   ** Warning ** Since Zone Minimum Air Flow Input Method = CONSTANT, input for Fixed Minimum Air Flow Rate will be ignored.
   **   ~~~   ** Occurs in AirTerminal:SingleDuct:VAV:Reheat = FLOOR 2 UTILITY TERMINAL
   ** Warning ** Since Zone Minimum Air Flow Input Method = CONSTANT, input for Fixed Minimum Air Flow Rate will be ignored.
   **   ~~~   ** Occurs in AirTerminal:SingleDuct:VAV:Reheat = FLOOR 2 WORK TERMINAL
   ** Warning ** Since Zone Minimum Air Flow Input Method = CONSTANT, input for Fixed Minimum Air Flow Rate will be ignored.
   **   ~~~   ** Occurs in AirTerminal:SingleDuct:VAV:Reheat = FLOOR 2 WORK HALL TERMINAL
   ** Warning ** Since Zone Minimum Air Flow Input Method = CONSTANT, input for Fixed Minimum Air Flow Rate will be ignored.
   **   ~~~   ** Occurs in AirTerminal:SingleDuct:VAV:Reheat = FLOOR 2 WORK TOILET TERMINAL
   ** Warning ** Since Zone Minimum Air Flow Input Method = CONSTANT, input for Fixed Minimum Air Flow Rate will be ignored.
   **   ~~~   ** Occurs in AirTerminal:SingleDuct:VAV:Reheat = FLOOR 2 X-RAY TERMINAL
   ** Warning ** Since Zone Minimum Air Flow Input Method = CONSTANT, input for Fixed Minimum Air Flow Rate will be ignored.
   **   ~~~   ** Occurs in AirTerminal:SingleDuct:VAV:Reheat = FLOOR 3 DRESSING ROOM TERMINAL
   ** Warning ** Since Zone Minimum Air Flow Input Method = CONSTANT, input for Fixed Minimum Air Flow Rate will be ignored.
   **   ~~~   ** Occurs in AirTerminal:SingleDuct:VAV:Reheat = FLOOR 3 ELEVATOR HALL TERMINAL
   ** Warning ** Since Zone Minimum Air Flow Input Method = CONSTANT, input for Fixed Minimum Air Flow Rate will be ignored.
   **   ~~~   ** Occurs in AirTerminal:SingleDuct:VAV:Reheat = FLOOR 3 HUMID TERMINAL
   ** Warning ** Since Zone Minimum Air Flow Input Method = CONSTANT, input for Fixed Minimum Air Flow Rate will be ignored.
   **   ~~~   ** Occurs in AirTerminal:SingleDuct:VAV:Reheat = FLOOR 3 JANITOR TERMINAL
   ** Warning ** Since Zone Minimum Air Flow Input Method = CONSTANT, input for Fixed Minimum Air Flow Rate will be ignored.
   **   ~~~   ** Occurs in AirTerminal:SingleDuct:VAV:Reheat = FLOOR 3 LOCKER TERMINAL
   ** Warning ** Since Zone Minimum Air Flow Input Method = CONSTANT, input for Fixed Minimum Air Flow Rate will be ignored.
   **   ~~~   ** Occurs in AirTerminal:SingleDuct:VAV:Reheat = FLOOR 3 LOUNGE TERMINAL
   ** Warning ** Since Zone Minimum Air Flow Input Method = CONSTANT, input for Fixed Minimum Air Flow Rate will be ignored.
   **   ~~~   ** Occurs in AirTerminal:SingleDuct:VAV:Reheat = FLOOR 3 LOUNGE TOILET TERMINAL
   ** Warning ** Since Zone Minimum Air Flow Input Method = CONSTANT, input for Fixed Minimum Air Flow Rate will be ignored.
   **   ~~~   ** Occurs in AirTerminal:SingleDuct:VAV:Reheat = FLOOR 3 MECHANICAL TERMINAL
   ** Warning ** Since Zone Minimum Air Flow Input Method = CONSTANT, input for Fixed Minimum Air Flow Rate will be ignored.
   **   ~~~   ** Occurs in AirTerminal:SingleDuct:VAV:Reheat = FLOOR 3 MECHANICAL HALL TERMINAL
   ** Warning ** Since Zone Minimum Air Flow Input Method = CONSTANT, input for Fixed Minimum Air Flow Rate will be ignored.
   **   ~~~   ** Occurs in AirTerminal:SingleDuct:VAV:Reheat = FLOOR 3 OFFICE TERMINAL
   ** Warning ** Since Zone Minimum Air Flow Input Method = CONSTANT, input for Fixed Minimum Air Flow Rate will be ignored.
   **   ~~~   ** Occurs in AirTerminal:SingleDuct:VAV:Reheat = FLOOR 3 OFFICE HALL TERMINAL
   ** Warning ** Since Zone Minimum Air Flow Input Method = CONSTANT, input for Fixed Minimum Air Flow Rate will be ignored.
   **   ~~~   ** Occurs in AirTerminal:SingleDuct:VAV:Reheat = FLOOR 3 OFFICE TOILET TERMINAL
   ** Warning ** Since Zone Minimum Air Flow Input Method = CONSTANT, input for Fixed Minimum Air Flow Rate will be ignored.
   **   ~~~   ** Occurs in AirTerminal:SingleDuct:VAV:Reheat = FLOOR 3 PHYSICAL THERAPY 1 TERMINAL
   ** Warning ** Since Zone Minimum Air Flow Input Method = CONSTANT, input for Fixed Minimum Air Flow Rate will be ignored.
   **   ~~~   ** Occurs in AirTerminal:SingleDuct:VAV:Reheat = FLOOR 3 PHYSICAL THERAPY 2 TERMINAL
   ** Warning ** Since Zone Minimum Air Flow Input Method = CONSTANT, input for Fixed Minimum Air Flow Rate will be ignored.
   **   ~~~   ** Occurs in AirTerminal:SingleDuct:VAV:Reheat = FLOOR 3 PHYSICAL THERAPY TOILET TERMINAL
   ** Warning ** Since Zone Minimum Air Flow Input Method = CONSTANT, input for Fixed Minimum Air Flow Rate will be ignored.
   **   ~~~   ** Occurs in AirTerminal:SingleDuct:VAV:Reheat = FLOOR 3 STORAGE 1 TERMINAL
   ** Warning ** Since Zone Minimum Air Flow Input Method = CONSTANT, input for Fixed Minimum Air Flow Rate will be ignored.
   **   ~~~   ** Occurs in AirTerminal:SingleDuct:VAV:Reheat = FLOOR 3 STORAGE 2 TERMINAL
   ** Warning ** Since Zone Minimum Air Flow Input Method = CONSTANT, input for Fixed Minimum Air Flow Rate will be ignored.
   **   ~~~   ** Occurs in AirTerminal:SingleDuct:VAV:Reheat = FLOOR 3 TREATMENT TERMINAL
   ** Warning ** Since Zone Minimum Air Flow Input Method = CONSTANT, input for Fixed Minimum Air Flow Rate will be ignored.
   **   ~~~   ** Occurs in AirTerminal:SingleDuct:VAV:Reheat = FLOOR 3 UNDEVELOPED 1 TERMINAL
   ** Warning ** Since Zone Minimum Air Flow Input Method = CONSTANT, input for Fixed Minimum Air Flow Rate will be ignored.
   **   ~~~   ** Occurs in AirTerminal:SingleDuct:VAV:Reheat = FLOOR 3 UNDEVELOPED 2 TERMINAL
   ** Warning ** Since Zone Minimum Air Flow Input Method = CONSTANT, input for Fixed Minimum Air Flow Rate will be ignored.
   **   ~~~   ** Occurs in AirTerminal:SingleDuct:VAV:Reheat = FLOOR 3 UTILITY TERMINAL
   ** Warning ** Since Zone Minimum Air Flow Input Method = CONSTANT, input for Fixed Minimum Air Flow Rate will be ignored.
   **   ~~~   ** Occurs in AirTerminal:SingleDuct:VAV:Reheat = FLOOR 3 WORK TERMINAL
   ************* Beginning Plant Sizing Calculations
   ************* SizeHVACSingleDuct: Potential issue with equipment sizing for AirTerminal:SingleDuct:VAV:Reheat = "FLOOR 1 ANESTHESIA TERMINAL".
   **   ~~~   ** User-Specified Minimum Cooling Air Flow Fraction of 0.30000
   **   ~~~   ** differs from Design Size Minimum Cooling Air Flow Fraction of 0.00000
   **   ~~~   ** This may, or may not, indicate mismatched component sizes.
   **   ~~~   ** Verify that the value entered is intended and is consistent with other components.
   ************* SizeHVACSingleDuct: Potential issue with equipment sizing for AirTerminal:SingleDuct:VAV:Reheat = "FLOOR 1 CAFE TERMINAL".
   **   ~~~   ** User-Specified Minimum Cooling Air Flow Fraction of 0.30000
   **   ~~~   ** differs from Design Size Minimum Cooling Air Flow Fraction of 0.10730
   **   ~~~   ** This may, or may not, indicate mismatched component sizes.
   **   ~~~   ** Verify that the value entered is intended and is consistent with other components.
   ************* SizeHVACSingleDuct: Potential issue with equipment sizing for AirTerminal:SingleDuct:VAV:Reheat = "FLOOR 1 CLEAN TERMINAL".
   **   ~~~   ** User-Specified Minimum Cooling Air Flow Fraction of 0.30000
   **   ~~~   ** differs from Design Size Minimum Cooling Air Flow Fraction of 0.65722
   **   ~~~   ** This may, or may not, indicate mismatched component sizes.
   **   ~~~   ** Verify that the value entered is intended and is consistent with other components.
   ************* SizeHVACSingleDuct: Potential issue with equipment sizing for AirTerminal:SingleDuct:VAV:Reheat = "FLOOR 1 CLEAN WORK TERMINAL".
   **   ~~~   ** User-Specified Minimum Cooling Air Flow Fraction of 0.30000
   **   ~~~   ** differs from Design Size Minimum Cooling Air Flow Fraction of 0.69927
   **   ~~~   ** This may, or may not, indicate mismatched component sizes.
   **   ~~~   ** Verify that the value entered is intended and is consistent with other components.
   ************* SizeHVACSingleDuct: Potential issue with equipment sizing for AirTerminal:SingleDuct:VAV:Reheat = "FLOOR 1 DICTATION TERMINAL".
   **   ~~~   ** User-Specified Minimum Cooling Air Flow Fraction of 0.30000
   **   ~~~   ** differs from Design Size Minimum Cooling Air Flow Fraction of 0.20741
   **   ~~~   ** This may, or may not, indicate mismatched component sizes.
   **   ~~~   ** Verify that the value entered is intended and is consistent with other components.
   ************* SizeHVACSingleDuct: Potential issue with equipment sizing for AirTerminal:SingleDuct:VAV:Reheat = "FLOOR 1 DRESSING ROOM TERMINAL".
   **   ~~~   ** User-Specified Minimum Cooling Air Flow Fraction of 0.30000
   **   ~~~   ** differs from Design Size Minimum Cooling Air Flow Fraction of 0.17095
   **   ~~~   ** This may, or may not, indicate mismatched component sizes.
   **   ~~~   ** Verify that the value entered is intended and is consistent with other components.
   ************* SizeHVACSingleDuct: Potential issue with equipment sizing for AirTerminal:SingleDuct:VAV:Reheat = "FLOOR 1 ELECTRICAL ROOM TERMINAL".
   **   ~~~   ** User-Specified Minimum Cooling Air Flow Fraction of 0.30000
   **   ~~~   ** differs from Design Size Minimum Cooling Air Flow Fraction of 0.13062
   **   ~~~   ** This may, or may not, indicate mismatched component sizes.
   **   ~~~   ** Verify that the value entered is intended and is consistent with other components.
   ************* SizeHVACSingleDuct: Potential issue with equipment sizing for AirTerminal:SingleDuct:VAV:Reheat = "FLOOR 1 ELEVATOR PUMP ROOM TERMINAL".
   **   ~~~   ** User-Specified Minimum Cooling Air Flow Fraction of 0.30000
   **   ~~~   ** differs from Design Size Minimum Cooling Air Flow Fraction of 9.71131E-002
   **   ~~~   ** This may, or may not, indicate mismatched component sizes.
   **   ~~~   ** Verify that the value entered is intended and is consistent with other components.
   ************* SizeHVACSingleDuct: Potential issue with equipment sizing for AirTerminal:SingleDuct:VAV:Reheat = "FLOOR 1 HUMID TERMINAL".
   **   ~~~   ** User-Specified Minimum Cooling Air Flow Fraction of 0.30000
   **   ~~~   ** differs from Design Size Minimum Cooling Air Flow Fraction of 0.18131
   **   ~~~   ** This may, or may not, indicate mismatched component sizes.
   **   ~~~   ** Verify that the value entered is intended and is consistent with other components.
   ************* SizeHVACSingleDuct: Potential issue with equipment sizing for AirTerminal:SingleDuct:VAV:Reheat = "FLOOR 1 IT HALL TERMINAL".
   **   ~~~   ** User-Specified Minimum Cooling Air Flow Fraction of 0.30000
   **   ~~~   ** differs from Design Size Minimum Cooling Air Flow Fraction of 0.26185
   **   ~~~   ** This may, or may not, indicate mismatched component sizes.
   **   ~~~   ** Verify that the value entered is intended and is consistent with other components.
   ************* SizeHVACSingleDuct: Potential issue with equipment sizing for AirTerminal:SingleDuct:VAV:Reheat = "FLOOR 1 IT ROOM TERMINAL".
   **   ~~~   ** User-Specified Minimum Cooling Air Flow Fraction of 0.30000
   **   ~~~   ** differs from Design Size Minimum Cooling Air Flow Fraction of 0.22952
   **   ~~~   ** This may, or may not, indicate mismatched component sizes.
   **   ~~~   ** Verify that the value entered is intended and is consistent with other components.
   ************* SizeHVACSingleDuct: Potential issue with equipment sizing for AirTerminal:SingleDuct:VAV:Reheat = "FLOOR 1 LOBBY TERMINAL".
   **   ~~~   ** User-Specified Minimum Cooling Air Flow Fraction of 0.30000
   **   ~~~   ** differs from Design Size Minimum Cooling Air Flow Fraction of 0.19841
   **   ~~~   ** This may, or may not, indicate mismatched component sizes.
   **   ~~~   ** Verify that the value entered is intended and is consistent with other components.
   ************* SizeHVACSingleDuct: Potential issue with equipment sizing for AirTerminal:SingleDuct:VAV:Reheat = "FLOOR 1 LOBBY HALL TERMINAL".
   **   ~~~   ** User-Specified Minimum Cooling Air Flow Fraction of 0.30000
   **   ~~~   ** differs from Design Size Minimum Cooling Air Flow Fraction of 0.24897
   **   ~~~   ** This may, or may not, indicate mismatched component sizes.
   **   ~~~   ** Verify that the value entered is intended and is consistent with other components.
   ************* SizeHVACSingleDuct: Potential issue with equipment sizing for AirTerminal:SingleDuct:VAV:Reheat = "FLOOR 1 LOBBY TOILET TERMINAL".
   **   ~~~   ** User-Specified Minimum Cooling Air Flow Fraction of 0.30000
   **   ~~~   ** differs from Design Size Minimum Cooling Air Flow Fraction of 0.00000
   **   ~~~   ** This may, or may not, indicate mismatched component sizes.
   **   ~~~   ** Verify that the value entered is intended and is consistent with other components.
   ************* SizeHVACSingleDuct: Potential issue with equipment sizing for AirTerminal:SingleDuct:VAV:Reheat = "FLOOR 1 LOCKER ROOM TERMINAL".
   **   ~~~   ** User-Specified Minimum Cooling Air Flow Fraction of 0.30000
   **   ~~~   ** differs from Design Size Minimum Cooling Air Flow Fraction of 0.16979
   **   ~~~   ** This may, or may not, indicate mismatched component sizes.
   **   ~~~   ** Verify that the value entered is intended and is consistent with other components.
   ************* SizeHVACSingleDuct: Potential issue with equipment sizing for AirTerminal:SingleDuct:VAV:Reheat = "FLOOR 1 LOUNGE TERMINAL".
   **   ~~~   ** User-Specified Minimum Cooling Air Flow Fraction of 0.30000
   **   ~~~   ** differs from Design Size Minimum Cooling Air Flow Fraction of 0.16603
   **   ~~~   ** This may, or may not, indicate mismatched component sizes.
   **   ~~~   ** Verify that the value entered is intended and is consistent with other components.
   ************* SizeHVACSingleDuct: Potential issue with equipment sizing for AirTerminal:SingleDuct:VAV:Reheat = "FLOOR 1 MED GAS TERMINAL".
   **   ~~~   ** User-Specified Minimum Cooling Air Flow Fraction of 0.30000
   **   ~~~   ** differs from Design Size Minimum Cooling Air Flow Fraction of 0.17609
   **   ~~~   ** This may, or may not, indicate mismatched component sizes.
   **   ~~~   ** Verify that the value entered is intended and is consistent with other components.
   ************* SizeHVACSingleDuct: Potential issue with equipment sizing for AirTerminal:SingleDuct:VAV:Reheat = "FLOOR 1 MRI CONTROL ROOM TERMINAL".
   **   ~~~   ** User-Specified Minimum Cooling Air Flow Fraction of 0.30000
   **   ~~~   ** differs from Design Size Minimum Cooling Air Flow Fraction of 0.00000
   **   ~~~   ** This may, or may not, indicate mismatched component sizes.
   **   ~~~   ** Verify that the value entered is intended and is consistent with other components.
   ************* SizeHVACSingleDuct: Potential issue with equipment sizing for AirTerminal:SingleDuct:VAV:Reheat = "FLOOR 1 MRI HALL TERMINAL".
   **   ~~~   ** User-Specified Minimum Cooling Air Flow Fraction of 0.30000
   **   ~~~   ** differs from Design Size Minimum Cooling Air Flow Fraction of 0.22919
   **   ~~~   ** This may, or may not, indicate mismatched component sizes.
   **   ~~~   ** Verify that the value entered is intended and is consistent with other components.
   ************* SizeHVACSingleDuct: Potential issue with equipment sizing for AirTerminal:SingleDuct:VAV:Reheat = "FLOOR 1 MRI ROOM TERMINAL".
   **   ~~~   ** User-Specified Minimum Cooling Air Flow Fraction of 0.30000
   **   ~~~   ** differs from Design Size Minimum Cooling Air Flow Fraction of 0.00000
   **   ~~~   ** This may, or may not, indicate mismatched component sizes.
   **   ~~~   ** Verify that the value entered is intended and is consistent with other components.
   ************* SizeHVACSingleDuct: Potential issue with equipment sizing for AirTerminal:SingleDuct:VAV:Reheat = "FLOOR 1 MRI TOILET TERMINAL".
   **   ~~~   ** User-Specified Minimum Cooling Air Flow Fraction of 0.30000
   **   ~~~   ** differs from Design Size Minimum Cooling Air Flow Fraction of 0.00000
   **   ~~~   ** This may, or may not, indicate mismatched component sizes.
   **   ~~~   ** Verify that the value entered is intended and is consistent with other components.
   ************* SizeHVACSingleDuct: Potential issue with equipment sizing for AirTerminal:SingleDuct:VAV:Reheat = "FLOOR 1 NOURISHMENT TERMINAL".
   **   ~~~   ** User-Specified Minimum Cooling Air Flow Fraction of 0.30000
   **   ~~~   ** differs from Design Size Minimum Cooling Air Flow Fraction of 0.15783
   **   ~~~   ** This may, or may not, indicate mismatched component sizes.
   **   ~~~   ** Verify that the value entered is intended and is consistent with other components.
   ************* SizeHVACSingleDuct: Potential issue with equipment sizing for AirTerminal:SingleDuct:VAV:Reheat = "FLOOR 1 NURSE HALL TERMINAL".
   **   ~~~   ** User-Specified Minimum Cooling Air Flow Fraction of 0.30000
   **   ~~~   ** differs from Design Size Minimum Cooling Air Flow Fraction of 0.26042
   **   ~~~   ** This may, or may not, indicate mismatched component sizes.
   **   ~~~   ** Verify that the value entered is intended and is consistent with other components.
   ************* SizeHVACSingleDuct: Potential issue with equipment sizing for AirTerminal:SingleDuct:VAV:Reheat = "FLOOR 1 NURSE JANITOR TERMINAL".
   **   ~~~   ** User-Specified Minimum Cooling Air Flow Fraction of 0.30000
   **   ~~~   ** differs from Design Size Minimum Cooling Air Flow Fraction of 0.24759
   **   ~~~   ** This may, or may not, indicate mismatched component sizes.
   **   ~~~   ** Verify that the value entered is intended and is consistent with other components.
   ************* SizeHVACSingleDuct: Potential issue with equipment sizing for AirTerminal:SingleDuct:VAV:Reheat = "FLOOR 1 NURSE STATION TERMINAL".
   **   ~~~   ** User-Specified Minimum Cooling Air Flow Fraction of 0.30000
   **   ~~~   ** differs from Design Size Minimum Cooling Air Flow Fraction of 0.17041
   **   ~~~   ** This may, or may not, indicate mismatched component sizes.
   **   ~~~   ** Verify that the value entered is intended and is consistent with other components.
   ************* SizeHVACSingleDuct: Potential issue with equipment sizing for AirTerminal:SingleDuct:VAV:Reheat = "FLOOR 1 NURSE TOILET TERMINAL".
   **   ~~~   ** User-Specified Minimum Cooling Air Flow Fraction of 0.30000
   **   ~~~   ** differs from Design Size Minimum Cooling Air Flow Fraction of 0.00000
   **   ~~~   ** This may, or may not, indicate mismatched component sizes.
   **   ~~~   ** Verify that the value entered is intended and is consistent with other components.
   ************* SizeHVACSingleDuct: Potential issue with equipment sizing for AirTerminal:SingleDuct:VAV:Reheat = "FLOOR 1 OFFICE TERMINAL".
   **   ~~~   ** User-Specified Minimum Cooling Air Flow Fraction of 0.30000
   **   ~~~   ** differs from Design Size Minimum Cooling Air Flow Fraction of 0.26269
   **   ~~~   ** This may, or may not, indicate mismatched component sizes.
   **   ~~~   ** Verify that the value entered is intended and is consistent with other components.
   ************* SizeHVACSingleDuct: Potential issue with equipment sizing for AirTerminal:SingleDuct:VAV:Reheat = "FLOOR 1 OPERATING ROOM 1 TERMINAL".
   **   ~~~   ** User-Specified Minimum Cooling Air Flow Fraction of 0.30000
   **   ~~~   ** differs from Design Size Minimum Cooling Air Flow Fraction of 1.00000
   **   ~~~   ** This may, or may not, indicate mismatched component sizes.
   **   ~~~   ** Verify that the value entered is intended and is consistent with other components.
   ************* SizeHVACSingleDuct: Potential issue with equipment sizing for AirTerminal:SingleDuct:VAV:Reheat = "FLOOR 1 OPERATING ROOM 2 TERMINAL".
   **   ~~~   ** User-Specified Minimum Cooling Air Flow Fraction of 0.30000
   **   ~~~   ** differs from Design Size Minimum Cooling Air Flow Fraction of 1.00000
   **   ~~~   ** This may, or may not, indicate mismatched component sizes.
   **   ~~~   ** Verify that the value entered is intended and is consistent with other components.
   ************* SizeHVACSingleDuct: Potential issue with equipment sizing for AirTerminal:SingleDuct:VAV:Reheat = "FLOOR 1 OPERATING ROOM 3 TERMINAL".
   **   ~~~   ** User-Specified Minimum Cooling Air Flow Fraction of 0.30000
   **   ~~~   ** differs from Design Size Minimum Cooling Air Flow Fraction of 1.00000
   **   ~~~   ** This may, or may not, indicate mismatched component sizes.
   **   ~~~   ** Verify that the value entered is intended and is consistent with other components.
   ************* SizeHVACSingleDuct: Potential issue with equipment sizing for AirTerminal:SingleDuct:VAV:Reheat = "FLOOR 1 PACU TERMINAL".
   **   ~~~   ** User-Specified Minimum Cooling Air Flow Fraction of 0.30000
   **   ~~~   ** differs from Design Size Minimum Cooling Air Flow Fraction of 0.89986
   **   ~~~   ** This may, or may not, indicate mismatched component sizes.
   **   ~~~   ** Verify that the value entered is intended and is consistent with other components.
   ************* SizeHVACSingleDuct: Potential issue with equipment sizing for AirTerminal:SingleDuct:VAV:Reheat = "FLOOR 1 PRE-OP ROOM 1 TERMINAL".
   **   ~~~   ** User-Specified Minimum Cooling Air Flow Fraction of 0.30000
   **   ~~~   ** differs from Design Size Minimum Cooling Air Flow Fraction of 1.00000
   **   ~~~   ** This may, or may not, indicate mismatched component sizes.
   **   ~~~   ** Verify that the value entered is intended and is consistent with other components.
   ************* SizeHVACSingleDuct: Potential issue with equipment sizing for AirTerminal:SingleDuct:VAV:Reheat = "FLOOR 1 PRE-OP ROOM 2 TERMINAL".
   **   ~~~   ** User-Specified Minimum Cooling Air Flow Fraction of 0.30000
   **   ~~~   ** differs from Design Size Minimum Cooling Air Flow Fraction of 1.00000
   **   ~~~   ** This may, or may not, indicate mismatched component sizes.
   **   ~~~   ** Verify that the value entered is intended and is consistent with other components.
   ************* SizeHVACSingleDuct: Potential issue with equipment sizing for AirTerminal:SingleDuct:VAV:Reheat = "FLOOR 1 PRE-OP TOILET TERMINAL".
   **   ~~~   ** User-Specified Minimum Cooling Air Flow Fraction of 0.30000
   **   ~~~   ** differs from Design Size Minimum Cooling Air Flow Fraction of 0.00000
   **   ~~~   ** This may, or may not, indicate mismatched component sizes.
   **   ~~~   ** Verify that the value entered is intended and is consistent with other components.
   ************* SizeHVACSingleDuct: Potential issue with equipment sizing for AirTerminal:SingleDuct:VAV:Reheat = "FLOOR 1 PROCEDURE ROOM TERMINAL".
   **   ~~~   ** User-Specified Minimum Cooling Air Flow Fraction of 0.30000
   **   ~~~   ** differs from Design Size Minimum Cooling Air Flow Fraction of 1.00000
   **   ~~~   ** This may, or may not, indicate mismatched component sizes.
   **   ~~~   ** Verify that the value entered is intended and is consistent with other components.
   ************* SizeHVACSingleDuct: Potential issue with equipment sizing for AirTerminal:SingleDuct:VAV:Reheat = "FLOOR 1 RECEPTION TERMINAL".
   **   ~~~   ** User-Specified Minimum Cooling Air Flow Fraction of 0.30000
   **   ~~~   ** differs from Design Size Minimum Cooling Air Flow Fraction of 0.17443
   **   ~~~   ** This may, or may not, indicate mismatched component sizes.
   **   ~~~   ** Verify that the value entered is intended and is consistent with other components.
   ************* SizeHVACSingleDuct: Potential issue with equipment sizing for AirTerminal:SingleDuct:VAV:Reheat = "FLOOR 1 RECEPTION HALL TERMINAL".
   **   ~~~   ** User-Specified Minimum Cooling Air Flow Fraction of 0.30000
   **   ~~~   ** differs from Design Size Minimum Cooling Air Flow Fraction of 0.26180
   **   ~~~   ** This may, or may not, indicate mismatched component sizes.
   **   ~~~   ** Verify that the value entered is intended and is consistent with other components.
   ************* SizeHVACSingleDuct: Potential issue with equipment sizing for AirTerminal:SingleDuct:VAV:Reheat = "FLOOR 1 RECOVERY ROOM TERMINAL".
   **   ~~~   ** User-Specified Minimum Cooling Air Flow Fraction of 0.30000
   **   ~~~   ** differs from Design Size Minimum Cooling Air Flow Fraction of 0.96816
   **   ~~~   ** This may, or may not, indicate mismatched component sizes.
   **   ~~~   ** Verify that the value entered is intended and is consistent with other components.
   ************* SizeHVACSingleDuct: Potential issue with equipment sizing for AirTerminal:SingleDuct:VAV:Reheat = "FLOOR 1 SCHEDULING TERMINAL".
   **   ~~~   ** User-Specified Minimum Cooling Air Flow Fraction of 0.30000
   **   ~~~   ** differs from Design Size Minimum Cooling Air Flow Fraction of 0.22540
   **   ~~~   ** This may, or may not, indicate mismatched component sizes.
   **   ~~~   ** Verify that the value entered is intended and is consistent with other components.
   ************* SizeHVACSingleDuct: Potential issue with equipment sizing for AirTerminal:SingleDuct:VAV:Reheat = "FLOOR 1 SCRUB TERMINAL".
   **   ~~~   ** User-Specified Minimum Cooling Air Flow Fraction of 0.30000
   **   ~~~   ** differs from Design Size Minimum Cooling Air Flow Fraction of 0.25435
   **   ~~~   ** This may, or may not, indicate mismatched component sizes.
   **   ~~~   ** Verify that the value entered is intended and is consistent with other components.
   ************* SizeHVACSingleDuct: Potential issue with equipment sizing for AirTerminal:SingleDuct:VAV:Reheat = "FLOOR 1 SOIL TERMINAL".
   **   ~~~   ** User-Specified Minimum Cooling Air Flow Fraction of 0.30000
   **   ~~~   ** differs from Design Size Minimum Cooling Air Flow Fraction of 0.00000
   **   ~~~   ** This may, or may not, indicate mismatched component sizes.
   **   ~~~   ** Verify that the value entered is intended and is consistent with other components.
   ************* SizeHVACSingleDuct: Potential issue with equipment sizing for AirTerminal:SingleDuct:VAV:Reheat = "FLOOR 1 SOIL HOLD TERMINAL".
   **   ~~~   ** User-Specified Minimum Cooling Air Flow Fraction of 0.30000
   **   ~~~   ** differs from Design Size Minimum Cooling Air Flow Fraction of 0.00000
   **   ~~~   ** This may, or may not, indicate mismatched component sizes.
   **   ~~~   ** Verify that the value entered is intended and is consistent with other components.
   ************* SizeHVACSingleDuct: Potential issue with equipment sizing for AirTerminal:SingleDuct:VAV:Reheat = "FLOOR 1 SOIL WORK TERMINAL".
   **   ~~~   ** User-Specified Minimum Cooling Air Flow Fraction of 0.30000
   **   ~~~   ** differs from Design Size Minimum Cooling Air Flow Fraction of 0.00000
   **   ~~~   ** This may, or may not, indicate mismatched component sizes.
   **   ~~~   ** Verify that the value entered is intended and is consistent with other components.
   ************* SizeHVACSingleDuct: Potential issue with equipment sizing for AirTerminal:SingleDuct:VAV:Reheat = "FLOOR 1 STEP DOWN TERMINAL".
   **   ~~~   ** User-Specified Minimum Cooling Air Flow Fraction of 0.30000
   **   ~~~   ** differs from Design Size Minimum Cooling Air Flow Fraction of 0.90781
   **   ~~~   ** This may, or may not, indicate mismatched component sizes.
   **   ~~~   ** Verify that the value entered is intended and is consistent with other components.
   ************* SizeHVACSingleDuct: Potential issue with equipment sizing for AirTerminal:SingleDuct:VAV:Reheat = "FLOOR 1 STERILE STORAGE TERMINAL".
   **   ~~~   ** User-Specified Minimum Cooling Air Flow Fraction of 0.30000
   **   ~~~   ** differs from Design Size Minimum Cooling Air Flow Fraction of 0.35105
   **   ~~~   ** This may, or may not, indicate mismatched component sizes.
   **   ~~~   ** Verify that the value entered is intended and is consistent with other components.
   ************* SizeHVACSingleDuct: Potential issue with equipment sizing for AirTerminal:SingleDuct:VAV:Reheat = "FLOOR 1 STORAGE TERMINAL".
   **   ~~~   ** User-Specified Minimum Cooling Air Flow Fraction of 0.30000
   **   ~~~   ** differs from Design Size Minimum Cooling Air Flow Fraction of 0.43624
   **   ~~~   ** This may, or may not, indicate mismatched component sizes.
   **   ~~~   ** Verify that the value entered is intended and is consistent with other components.
   ************* SizeHVACSingleDuct: Potential issue with equipment sizing for AirTerminal:SingleDuct:VAV:Reheat = "FLOOR 1 SUB-STERILE TERMINAL".
   **   ~~~   ** User-Specified Minimum Cooling Air Flow Fraction of 0.30000
   **   ~~~   ** differs from Design Size Minimum Cooling Air Flow Fraction of 0.23867
   **   ~~~   ** This may, or may not, indicate mismatched component sizes.
   **   ~~~   ** Verify that the value entered is intended and is consistent with other components.
   ************* SizeHVACSingleDuct: Potential issue with equipment sizing for AirTerminal:SingleDuct:VAV:Reheat = "FLOOR 1 UTILITY HALL TERMINAL".
   **   ~~~   ** User-Specified Minimum Cooling Air Flow Fraction of 0.30000
   **   ~~~   ** differs from Design Size Minimum Cooling Air Flow Fraction of 0.23993
   **   ~~~   ** This may, or may not, indicate mismatched component sizes.
   **   ~~~   ** Verify that the value entered is intended and is consistent with other components.
   ************* SizeHVACSingleDuct: Potential issue with equipment sizing for AirTerminal:SingleDuct:VAV:Reheat = "FLOOR 1 UTILITY JANITOR TERMINAL".
   **   ~~~   ** User-Specified Minimum Cooling Air Flow Fraction of 0.30000
   **   ~~~   ** differs from Design Size Minimum Cooling Air Flow Fraction of 0.25567
   **   ~~~   ** This may, or may not, indicate mismatched component sizes.
   **   ~~~   ** Verify that the value entered is intended and is consistent with other components.
   ************* SizeHVACSingleDuct: Potential issue with equipment sizing for AirTerminal:SingleDuct:VAV:Reheat = "FLOOR 1 VESTIBULE TERMINAL".
   **   ~~~   ** User-Specified Minimum Cooling Air Flow Fraction of 0.30000
   **   ~~~   ** differs from Design Size Minimum Cooling Air Flow Fraction of 0.22734
   **   ~~~   ** This may, or may not, indicate mismatched component sizes.
   **   ~~~   ** Verify that the value entered is intended and is consistent with other components.
   ************* SizeHVACSingleDuct: Potential issue with equipment sizing for AirTerminal:SingleDuct:VAV:Reheat = "FLOOR 2 CONFERENCE TERMINAL".
   **   ~~~   ** User-Specified Minimum Cooling Air Flow Fraction of 0.30000
   **   ~~~   ** differs from Design Size Minimum Cooling Air Flow Fraction of 0.10955
   **   ~~~   ** This may, or may not, indicate mismatched component sizes.
   **   ~~~   ** Verify that the value entered is intended and is consistent with other components.
   ************* SizeHVACSingleDuct: Potential issue with equipment sizing for AirTerminal:SingleDuct:VAV:Reheat = "FLOOR 2 CONFERENCE TOILET TERMINAL".
   **   ~~~   ** User-Specified Minimum Cooling Air Flow Fraction of 0.30000
   **   ~~~   ** differs from Design Size Minimum Cooling Air Flow Fraction of 0.00000
   **   ~~~   ** This may, or may not, indicate mismatched component sizes.
   **   ~~~   ** Verify that the value entered is intended and is consistent with other components.
   ************* SizeHVACSingleDuct: Potential issue with equipment sizing for AirTerminal:SingleDuct:VAV:Reheat = "FLOOR 2 DICTATION TERMINAL".
   **   ~~~   ** User-Specified Minimum Cooling Air Flow Fraction of 0.30000
   **   ~~~   ** differs from Design Size Minimum Cooling Air Flow Fraction of 0.16240
   **   ~~~   ** This may, or may not, indicate mismatched component sizes.
   **   ~~~   ** Verify that the value entered is intended and is consistent with other components.
   ************* SizeHVACSingleDuct: Potential issue with equipment sizing for AirTerminal:SingleDuct:VAV:Reheat = "FLOOR 2 EXAM 1 TERMINAL".
   **   ~~~   ** User-Specified Minimum Cooling Air Flow Fraction of 0.30000
   **   ~~~   ** differs from Design Size Minimum Cooling Air Flow Fraction of 0.81459
   **   ~~~   ** This may, or may not, indicate mismatched component sizes.
   **   ~~~   ** Verify that the value entered is intended and is consistent with other components.
   ************* SizeHVACSingleDuct: Potential issue with equipment sizing for AirTerminal:SingleDuct:VAV:Reheat = "FLOOR 2 EXAM 2 TERMINAL".
   **   ~~~   ** User-Specified Minimum Cooling Air Flow Fraction of 0.30000
   **   ~~~   ** differs from Design Size Minimum Cooling Air Flow Fraction of 1.00000
   **   ~~~   ** This may, or may not, indicate mismatched component sizes.
   **   ~~~   ** Verify that the value entered is intended and is consistent with other components.
   ************* SizeHVACSingleDuct: Potential issue with equipment sizing for AirTerminal:SingleDuct:VAV:Reheat = "FLOOR 2 EXAM 3 TERMINAL".
   **   ~~~   ** User-Specified Minimum Cooling Air Flow Fraction of 0.30000
   **   ~~~   ** differs from Design Size Minimum Cooling Air Flow Fraction of 1.00000
   **   ~~~   ** This may, or may not, indicate mismatched component sizes.
   **   ~~~   ** Verify that the value entered is intended and is consistent with other components.
   ************* SizeHVACSingleDuct: Potential issue with equipment sizing for AirTerminal:SingleDuct:VAV:Reheat = "FLOOR 2 EXAM 4 TERMINAL".
   **   ~~~   ** User-Specified Minimum Cooling Air Flow Fraction of 0.30000
   **   ~~~   ** differs from Design Size Minimum Cooling Air Flow Fraction of 0.84140
   **   ~~~   ** This may, or may not, indicate mismatched component sizes.
   **   ~~~   ** Verify that the value entered is intended and is consistent with other components.
   ************* SizeHVACSingleDuct: Potential issue with equipment sizing for AirTerminal:SingleDuct:VAV:Reheat = "FLOOR 2 EXAM 5 TERMINAL".
   **   ~~~   ** User-Specified Minimum Cooling Air Flow Fraction of 0.30000
   **   ~~~   ** differs from Design Size Minimum Cooling Air Flow Fraction of 0.82386
   **   ~~~   ** This may, or may not, indicate mismatched component sizes.
   **   ~~~   ** Verify that the value entered is intended and is consistent with other components.
   ************* SizeHVACSingleDuct: Potential issue with equipment sizing for AirTerminal:SingleDuct:VAV:Reheat = "FLOOR 2 EXAM 6 TERMINAL".
   **   ~~~   ** User-Specified Minimum Cooling Air Flow Fraction of 0.30000
   **   ~~~   ** differs from Design Size Minimum Cooling Air Flow Fraction of 0.99006
   **   ~~~   ** This may, or may not, indicate mismatched component sizes.
   **   ~~~   ** Verify that the value entered is intended and is consistent with other components.
   ************* SizeHVACSingleDuct: Potential issue with equipment sizing for AirTerminal:SingleDuct:VAV:Reheat = "FLOOR 2 EXAM 7 TERMINAL".
   **   ~~~   ** User-Specified Minimum Cooling Air Flow Fraction of 0.30000
   **   ~~~   ** differs from Design Size Minimum Cooling Air Flow Fraction of 1.00000
   **   ~~~   ** This may, or may not, indicate mismatched component sizes.
   **   ~~~   ** Verify that the value entered is intended and is consistent with other components.
   ************* SizeHVACSingleDuct: Potential issue with equipment sizing for AirTerminal:SingleDuct:VAV:Reheat = "FLOOR 2 EXAM 8 TERMINAL".
   **   ~~~   ** User-Specified Minimum Cooling Air Flow Fraction of 0.30000
   **   ~~~   ** differs from Design Size Minimum Cooling Air Flow Fraction of 0.97328
   **   ~~~   ** This may, or may not, indicate mismatched component sizes.
   **   ~~~   ** Verify that the value entered is intended and is consistent with other components.
   ************* SizeHVACSingleDuct: Potential issue with equipment sizing for AirTerminal:SingleDuct:VAV:Reheat = "FLOOR 2 EXAM 9 TERMINAL".
   **   ~~~   ** User-Specified Minimum Cooling Air Flow Fraction of 0.30000
   **   ~~~   ** differs from Design Size Minimum Cooling Air Flow Fraction of 1.00000
   **   ~~~   ** This may, or may not, indicate mismatched component sizes.
   **   ~~~   ** Verify that the value entered is intended and is consistent with other components.
   ************* SizeHVACSingleDuct: Potential issue with equipment sizing for AirTerminal:SingleDuct:VAV:Reheat = "FLOOR 2 EXAM HALL 1 TERMINAL".
   **   ~~~   ** User-Specified Minimum Cooling Air Flow Fraction of 0.30000
   **   ~~~   ** differs from Design Size Minimum Cooling Air Flow Fraction of 0.18234
   **   ~~~   ** This may, or may not, indicate mismatched component sizes.
   **   ~~~   ** Verify that the value entered is intended and is consistent with other components.
   ************* SizeHVACSingleDuct: Potential issue with equipment sizing for AirTerminal:SingleDuct:VAV:Reheat = "FLOOR 2 EXAM HALL 2 TERMINAL".
   **   ~~~   ** User-Specified Minimum Cooling Air Flow Fraction of 0.30000
   **   ~~~   ** differs from Design Size Minimum Cooling Air Flow Fraction of 0.18081
   **   ~~~   ** This may, or may not, indicate mismatched component sizes.
   **   ~~~   ** Verify that the value entered is intended and is consistent with other components.
   ************* SizeHVACSingleDuct: Potential issue with equipment sizing for AirTerminal:SingleDuct:VAV:Reheat = "FLOOR 2 EXAM HALL 3 TERMINAL".
   **   ~~~   ** User-Specified Minimum Cooling Air Flow Fraction of 0.30000
   **   ~~~   ** differs from Design Size Minimum Cooling Air Flow Fraction of 0.18626
   **   ~~~   ** This may, or may not, indicate mismatched component sizes.
   **   ~~~   ** Verify that the value entered is intended and is consistent with other components.
   ************* SizeHVACSingleDuct: Potential issue with equipment sizing for AirTerminal:SingleDuct:VAV:Reheat = "FLOOR 2 EXAM HALL 4 TERMINAL".
   **   ~~~   ** User-Specified Minimum Cooling Air Flow Fraction of 0.30000
[...]
   **   ~~~   ** Zone outside air per person rate not set in Design Specification Outdoor Air Object="SZ DSOA FLOOR 1 UTILITY ROOM".
   ** Warning ** Controller:MechanicalVentilation="AHU-1_DCV", Zone OA/person rate
   **   ~~~   ** For Zone="FLOOR 1 VESTIBULE".
   **   ~~~   ** Zone outside air per person rate not set in Design Specification Outdoor Air Object="SZ DSOA FLOOR 1 VESTIBULE".
   ** Warning ** Controller:MechanicalVentilation="AHU-2_DCV", Zone OA/person rate
   **   ~~~   ** For Zone="FLOOR 2 CONFERENCE".
   **   ~~~   ** Zone outside air per person rate not set in Design Specification Outdoor Air Object="SZ DSOA FLOOR 2 CONFERENCE".
   ** Warning ** Controller:MechanicalVentilation="AHU-2_DCV", Zone OA/person rate
   **   ~~~   ** For Zone="FLOOR 2 CONFERENCE TOILET".
   **   ~~~   ** Zone outside air per person rate not set in Design Specification Outdoor Air Object="SZ DSOA FLOOR 2 CONFERENCE TOILET".
   ** Warning ** Controller:MechanicalVentilation="AHU-2_DCV", Zone OA/person rate
   **   ~~~   ** For Zone="FLOOR 2 DICTATION".
   **   ~~~   ** Zone outside air per person rate not set in Design Specification Outdoor Air Object="SZ DSOA FLOOR 2 DICTATION".
   ** Warning ** Controller:MechanicalVentilation="AHU-2_DCV", Zone OA/person rate
   **   ~~~   ** For Zone="FLOOR 2 EXAM 1".
   **   ~~~   ** Zone outside air per person rate not set in Design Specification Outdoor Air Object="SZ DSOA FLOOR 2 EXAM 1".
   ** Warning ** Controller:MechanicalVentilation="AHU-2_DCV", Zone OA/person rate
   **   ~~~   ** For Zone="FLOOR 2 EXAM 2".
   **   ~~~   ** Zone outside air per person rate not set in Design Specification Outdoor Air Object="SZ DSOA FLOOR 2 EXAM 2".
   ** Warning ** Controller:MechanicalVentilation="AHU-2_DCV", Zone OA/person rate
   **   ~~~   ** For Zone="FLOOR 2 EXAM 3".
   **   ~~~   ** Zone outside air per person rate not set in Design Specification Outdoor Air Object="SZ DSOA FLOOR 2 EXAM 3".
   ** Warning ** Controller:MechanicalVentilation="AHU-2_DCV", Zone OA/person rate
   **   ~~~   ** For Zone="FLOOR 2 EXAM 4".
   **   ~~~   ** Zone outside air per person rate not set in Design Specification Outdoor Air Object="SZ DSOA FLOOR 2 EXAM 4".
   ** Warning ** Controller:MechanicalVentilation="AHU-2_DCV", Zone OA/person rate
   **   ~~~   ** For Zone="FLOOR 2 EXAM 5".
   **   ~~~   ** Zone outside air per person rate not set in Design Specification Outdoor Air Object="SZ DSOA FLOOR 2 EXAM 5".
   ** Warning ** Controller:MechanicalVentilation="AHU-2_DCV", Zone OA/person rate
   **   ~~~   ** For Zone="FLOOR 2 EXAM 6".
   **   ~~~   ** Zone outside air per person rate not set in Design Specification Outdoor Air Object="SZ DSOA FLOOR 2 EXAM 6".
   ** Warning ** Controller:MechanicalVentilation="AHU-2_DCV", Zone OA/person rate
   **   ~~~   ** For Zone="FLOOR 2 EXAM 7".
   **   ~~~   ** Zone outside air per person rate not set in Design Specification Outdoor Air Object="SZ DSOA FLOOR 2 EXAM 7".
   ** Warning ** Controller:MechanicalVentilation="AHU-2_DCV", Zone OA/person rate
   **   ~~~   ** For Zone="FLOOR 2 EXAM 8".
   **   ~~~   ** Zone outside air per person rate not set in Design Specification Outdoor Air Object="SZ DSOA FLOOR 2 EXAM 8".
   ** Warning ** Controller:MechanicalVentilation="AHU-2_DCV", Zone OA/person rate
   **   ~~~   ** For Zone="FLOOR 2 EXAM 9".
   **   ~~~   ** Zone outside air per person rate not set in Design Specification Outdoor Air Object="SZ DSOA FLOOR 2 EXAM 9".
   ** Warning ** Controller:MechanicalVentilation="AHU-2_DCV", Zone OA/person rate
   **   ~~~   ** For Zone="FLOOR 2 EXAM HALL 1".
   **   ~~~   ** Zone outside air per person rate not set in Design Specification Outdoor Air Object="SZ DSOA FLOOR 2 EXAM HALL 1".
   ** Warning ** Controller:MechanicalVentilation="AHU-2_DCV", Zone OA/person rate
   **   ~~~   ** For Zone="FLOOR 2 EXAM HALL 2".
   **   ~~~   ** Zone outside air per person rate not set in Design Specification Outdoor Air Object="SZ DSOA FLOOR 2 EXAM HALL 2".
   ** Warning ** Controller:MechanicalVentilation="AHU-2_DCV", Zone OA/person rate
   **   ~~~   ** For Zone="FLOOR 2 EXAM HALL 3".
   **   ~~~   ** Zone outside air per person rate not set in Design Specification Outdoor Air Object="SZ DSOA FLOOR 2 EXAM HALL 3".
   ** Warning ** Controller:MechanicalVentilation="AHU-2_DCV", Zone OA/person rate
   **   ~~~   ** For Zone="FLOOR 2 EXAM HALL 4".
   **   ~~~   ** Zone outside air per person rate not set in Design Specification Outdoor Air Object="SZ DSOA FLOOR 2 EXAM HALL 4".
   ** Warning ** Controller:MechanicalVentilation="AHU-2_DCV", Zone OA/person rate
   **   ~~~   ** For Zone="FLOOR 2 EXAM HALL 5".
   **   ~~~   ** Zone outside air per person rate not set in Design Specification Outdoor Air Object="SZ DSOA FLOOR 2 EXAM HALL 5".
   ** Warning ** Controller:MechanicalVentilation="AHU-2_DCV", Zone OA/person rate
   **   ~~~   ** For Zone="FLOOR 2 EXAM HALL 6".
   **   ~~~   ** Zone outside air per person rate not set in Design Specification Outdoor Air Object="SZ DSOA FLOOR 2 EXAM HALL 6".
   ** Warning ** Controller:MechanicalVentilation="AHU-2_DCV", Zone OA/person rate
   **   ~~~   ** For Zone="FLOOR 2 JANITOR".
   **   ~~~   ** Zone outside air per person rate not set in Design Specification Outdoor Air Object="SZ DSOA FLOOR 2 JANITOR".
   ** Warning ** Controller:MechanicalVentilation="AHU-2_DCV", Zone OA/person rate
   **   ~~~   ** For Zone="FLOOR 2 LOUNGE".
   **   ~~~   ** Zone outside air per person rate not set in Design Specification Outdoor Air Object="SZ DSOA FLOOR 2 LOUNGE".
   ** Warning ** Controller:MechanicalVentilation="AHU-2_DCV", Zone OA/person rate
   **   ~~~   ** For Zone="FLOOR 2 NURSE STATION 1".
   **   ~~~   ** Zone outside air per person rate not set in Design Specification Outdoor Air Object="SZ DSOA FLOOR 2 NURSE STATION 1".
   ** Warning ** Controller:MechanicalVentilation="AHU-2_DCV", Zone OA/person rate
   **   ~~~   ** For Zone="FLOOR 2 NURSE STATION 2".
   **   ~~~   ** Zone outside air per person rate not set in Design Specification Outdoor Air Object="SZ DSOA FLOOR 2 NURSE STATION 2".
   ** Warning ** Controller:MechanicalVentilation="AHU-2_DCV", Zone OA/person rate
   **   ~~~   ** For Zone="FLOOR 2 OFFICE".
   **   ~~~   ** Zone outside air per person rate not set in Design Specification Outdoor Air Object="SZ DSOA FLOOR 2 OFFICE".
   ** Warning ** Controller:MechanicalVentilation="AHU-2_DCV", Zone OA/person rate
   **   ~~~   ** For Zone="FLOOR 2 OFFICE HALL".
   **   ~~~   ** Zone outside air per person rate not set in Design Specification Outdoor Air Object="SZ DSOA FLOOR 2 OFFICE HALL".
   ** Warning ** Controller:MechanicalVentilation="AHU-2_DCV", Zone OA/person rate
   **   ~~~   ** For Zone="FLOOR 2 RECEPTION HALL".
   **   ~~~   ** Zone outside air per person rate not set in Design Specification Outdoor Air Object="SZ DSOA FLOOR 2 RECEPTION HALL".
   ** Warning ** Controller:MechanicalVentilation="AHU-2_DCV", Zone OA/person rate
   **   ~~~   ** For Zone="FLOOR 2 RECEPTION TOILET".
   **   ~~~   ** Zone outside air per person rate not set in Design Specification Outdoor Air Object="SZ DSOA FLOOR 2 RECEPTION TOILET".
   ** Warning ** Controller:MechanicalVentilation="AHU-2_DCV", Zone OA/person rate
   **   ~~~   ** For Zone="FLOOR 2 SCHEDULING 1".
   **   ~~~   ** Zone outside air per person rate not set in Design Specification Outdoor Air Object="SZ DSOA FLOOR 2 SCHEDULING 1".
   ** Warning ** Controller:MechanicalVentilation="AHU-2_DCV", Zone OA/person rate
   **   ~~~   ** For Zone="FLOOR 2 SCHEDULING 2".
   **   ~~~   ** Zone outside air per person rate not set in Design Specification Outdoor Air Object="SZ DSOA FLOOR 2 SCHEDULING 2".
   ** Warning ** Controller:MechanicalVentilation="AHU-2_DCV", Zone OA/person rate
   **   ~~~   ** For Zone="FLOOR 2 STORAGE 1".
   **   ~~~   ** Zone outside air per person rate not set in Design Specification Outdoor Air Object="SZ DSOA FLOOR 2 STORAGE 1".
   ** Warning ** Controller:MechanicalVentilation="AHU-2_DCV", Zone OA/person rate
   **   ~~~   ** For Zone="FLOOR 2 STORAGE 2".
   **   ~~~   ** Zone outside air per person rate not set in Design Specification Outdoor Air Object="SZ DSOA FLOOR 2 STORAGE 2".
   ** Warning ** Controller:MechanicalVentilation="AHU-2_DCV", Zone OA/person rate
   **   ~~~   ** For Zone="FLOOR 2 STORAGE 3".
   **   ~~~   ** Zone outside air per person rate not set in Design Specification Outdoor Air Object="SZ DSOA FLOOR 2 STORAGE 3".
   ** Warning ** Controller:MechanicalVentilation="AHU-2_DCV", Zone OA/person rate
   **   ~~~   ** For Zone="FLOOR 2 UTILITY".
   **   ~~~   ** Zone outside air per person rate not set in Design Specification Outdoor Air Object="SZ DSOA FLOOR 2 UTILITY".
   ** Warning ** Controller:MechanicalVentilation="AHU-2_DCV", Zone OA/person rate
   **   ~~~   ** For Zone="FLOOR 2 WORK".
   **   ~~~   ** Zone outside air per person rate not set in Design Specification Outdoor Air Object="SZ DSOA FLOOR 2 WORK".
   ** Warning ** Controller:MechanicalVentilation="AHU-2_DCV", Zone OA/person rate
   **   ~~~   ** For Zone="FLOOR 2 WORK HALL".
   **   ~~~   ** Zone outside air per person rate not set in Design Specification Outdoor Air Object="SZ DSOA FLOOR 2 WORK HALL".
   ** Warning ** Controller:MechanicalVentilation="AHU-2_DCV", Zone OA/person rate
   **   ~~~   ** For Zone="FLOOR 2 WORK TOILET".
   **   ~~~   ** Zone outside air per person rate not set in Design Specification Outdoor Air Object="SZ DSOA FLOOR 2 WORK TOILET".
   ** Warning ** Controller:MechanicalVentilation="AHU-2_DCV", Zone OA/person rate
   **   ~~~   ** For Zone="FLOOR 2 X-RAY".
   **   ~~~   ** Zone outside air per person rate not set in Design Specification Outdoor Air Object="SZ DSOA FLOOR 2 X-RAY".
   ** Warning ** Controller:MechanicalVentilation="AHU-2_DCV", Zone OA/person rate
   **   ~~~   ** For Zone="FLOOR 3 DRESSING ROOM".
   **   ~~~   ** Zone outside air per person rate not set in Design Specification Outdoor Air Object="SZ DSOA FLOOR 3 DRESSING ROOM".
   ** Warning ** Controller:MechanicalVentilation="AHU-2_DCV", Zone OA/person rate
   **   ~~~   ** For Zone="FLOOR 3 ELEVATOR HALL".
   **   ~~~   ** Zone outside air per person rate not set in Design Specification Outdoor Air Object="SZ DSOA FLOOR 3 ELEVATOR HALL".
   ** Warning ** Controller:MechanicalVentilation="AHU-2_DCV", Zone OA/person rate
   **   ~~~   ** For Zone="FLOOR 3 HUMID".
   **   ~~~   ** Zone outside air per person rate not set in Design Specification Outdoor Air Object="SZ DSOA FLOOR 3 HUMID".
   ** Warning ** Controller:MechanicalVentilation="AHU-2_DCV", Zone OA/person rate
   **   ~~~   ** For Zone="FLOOR 3 JANITOR".
   **   ~~~   ** Zone outside air per person rate not set in Design Specification Outdoor Air Object="SZ DSOA FLOOR 3 JANITOR".
   ** Warning ** Controller:MechanicalVentilation="AHU-2_DCV", Zone OA/person rate
   **   ~~~   ** For Zone="FLOOR 3 LOCKER".
   **   ~~~   ** Zone outside air per person rate not set in Design Specification Outdoor Air Object="SZ DSOA FLOOR 3 LOCKER".
   ** Warning ** Controller:MechanicalVentilation="AHU-2_DCV", Zone OA/person rate
   **   ~~~   ** For Zone="FLOOR 3 LOUNGE".
   **   ~~~   ** Zone outside air per person rate not set in Design Specification Outdoor Air Object="SZ DSOA FLOOR 3 LOUNGE".
   ** Warning ** Controller:MechanicalVentilation="AHU-2_DCV", Zone OA/person rate
   **   ~~~   ** For Zone="FLOOR 3 LOUNGE TOILET".
   **   ~~~   ** Zone outside air per person rate not set in Design Specification Outdoor Air Object="SZ DSOA FLOOR 3 LOUNGE TOILET".
   ** Warning ** Controller:MechanicalVentilation="AHU-2_DCV", Zone OA/person rate
   **   ~~~   ** For Zone="FLOOR 3 MECHANICAL".
   **   ~~~   ** Zone outside air per person rate not set in Design Specification Outdoor Air Object="SZ DSOA FLOOR 3 MECHANICAL".
   ** Warning ** Controller:MechanicalVentilation="AHU-2_DCV", Zone OA/person rate
   **   ~~~   ** For Zone="FLOOR 3 MECHANICAL HALL".
   **   ~~~   ** Zone outside air per person rate not set in Design Specification Outdoor Air Object="SZ DSOA FLOOR 3 MECHANICAL HALL".
   ** Warning ** Controller:MechanicalVentilation="AHU-2_DCV", Zone OA/person rate
   **   ~~~   ** For Zone="FLOOR 3 OFFICE".
   **   ~~~   ** Zone outside air per person rate not set in Design Specification Outdoor Air Object="SZ DSOA FLOOR 3 OFFICE".
   ** Warning ** Controller:MechanicalVentilation="AHU-2_DCV", Zone OA/person rate
   **   ~~~   ** For Zone="FLOOR 3 OFFICE HALL".
   **   ~~~   ** Zone outside air per person rate not set in Design Specification Outdoor Air Object="SZ DSOA FLOOR 3 OFFICE HALL".
   ** Warning ** Controller:MechanicalVentilation="AHU-2_DCV", Zone OA/person rate
   **   ~~~   ** For Zone="FLOOR 3 OFFICE TOILET".
   **   ~~~   ** Zone outside air per person rate not set in Design Specification Outdoor Air Object="SZ DSOA FLOOR 3 OFFICE TOILET".
   ** Warning ** Controller:MechanicalVentilation="AHU-2_DCV", Zone OA/person rate
   **   ~~~   ** For Zone="FLOOR 3 PHYSICAL THERAPY TOILET".
   **   ~~~   ** Zone outside air per person rate not set in Design Specification Outdoor Air Object="SZ DSOA FLOOR 3 PHYSICAL THERAPY TOILET".
   ** Warning ** Controller:MechanicalVentilation="AHU-2_DCV", Zone OA/person rate
   **   ~~~   ** For Zone="FLOOR 3 STORAGE 1".
   **   ~~~   ** Zone outside air per person rate not set in Design Specification Outdoor Air Object="SZ DSOA FLOOR 3 STORAGE 1".
   ** Warning ** Controller:MechanicalVentilation="AHU-2_DCV", Zone OA/person rate
   **   ~~~   ** For Zone="FLOOR 3 STORAGE 2".
   **   ~~~   ** Zone outside air per person rate not set in Design Specification Outdoor Air Object="SZ DSOA FLOOR 3 STORAGE 2".
   ** Warning ** Controller:MechanicalVentilation="AHU-2_DCV", Zone OA/person rate
   **   ~~~   ** For Zone="FLOOR 3 TREATMENT".
   **   ~~~   ** Zone outside air per person rate not set in Design Specification Outdoor Air Object="SZ DSOA FLOOR 3 TREATMENT".
   ** Warning ** Controller:MechanicalVentilation="AHU-2_DCV", Zone OA/person rate
   **   ~~~   ** For Zone="FLOOR 3 UNDEVELOPED 1".
   **   ~~~   ** Zone outside air per person rate not set in Design Specification Outdoor Air Object="SZ DSOA FLOOR 3 UNDEVELOPED 1".
   ** Warning ** Controller:MechanicalVentilation="AHU-2_DCV", Zone OA/person rate
   **   ~~~   ** For Zone="FLOOR 3 UNDEVELOPED 2".
   **   ~~~   ** Zone outside air per person rate not set in Design Specification Outdoor Air Object="SZ DSOA FLOOR 3 UNDEVELOPED 2".
   ** Warning ** Controller:MechanicalVentilation="AHU-2_DCV", Zone OA/person rate
   **   ~~~   ** For Zone="FLOOR 3 UTILITY".
   **   ~~~   ** Zone outside air per person rate not set in Design Specification Outdoor Air Object="SZ DSOA FLOOR 3 UTILITY".
   ** Warning ** Controller:MechanicalVentilation="AHU-2_DCV", Zone OA/person rate
   **   ~~~   ** For Zone="FLOOR 3 WORK".
   **   ~~~   ** Zone outside air per person rate not set in Design Specification Outdoor Air Object="SZ DSOA FLOOR 3 WORK".
   ** Warning ** Controller:MechanicalVentilation="AHU-2_DCV", Zone OA/person rate
   **   ~~~   ** For Zone="NE STAIR".
   **   ~~~   ** Zone outside air per person rate not set in Design Specification Outdoor Air Object="SZ DSOA NE STAIR".
   ** Warning ** Controller:MechanicalVentilation="AHU-2_DCV", Zone OA/person rate
   **   ~~~   ** For Zone="NW ELEVATOR".
   **   ~~~   ** Zone outside air per person rate not set in Design Specification Outdoor Air Object="SZ DSOA NW ELEVATOR".
   ** Warning ** Controller:MechanicalVentilation="AHU-2_DCV", Zone OA/person rate
   **   ~~~   ** For Zone="NW STAIR".
   **   ~~~   ** Zone outside air per person rate not set in Design Specification Outdoor Air Object="SZ DSOA NW STAIR".
   ** Warning ** Controller:MechanicalVentilation="AHU-2_DCV", Zone OA/person rate
   **   ~~~   ** For Zone="SW STAIR".
   **   ~~~   ** Zone outside air per person rate not set in Design Specification Outdoor Air Object="SZ DSOA SW STAIR".
   ** Warning ** SizeWaterCoil: Potential issue with equipment sizing for Coil:Heating:Water AHU HEATING COIL 0
   **   ~~~   ** ...Rated Total Heating Capacity = 0.00 [W]
   **   ~~~   ** ...Air flow rate used for sizing = 0.43777 [m3/s]
   **   ~~~   ** ...Outdoor air fraction used for sizing = 2.94E-002
   **   ~~~   ** ...Coil inlet air temperature used for sizing = 20.01 [C]
   **   ~~~   ** ...Coil outlet air temperature used for sizing = 12.80 [C]
   ** Warning ** The design coil load is zero for Coil:Heating:Water AHU HEATING COIL 0
   **   ~~~   ** The autosize value for maximum water flow rate is zero
   **   ~~~   ** To change this, input a value for UA, change the heating design day, or raise the
   **   ~~~   **   system heating design supply air temperature. Also check to make sure the Preheat
   **   ~~~   **   Design Temperature is not the same as the Central Heating Design Supply Air Temperature. 
   ** Warning ** InitController: Controller:WaterCoil="AHU HEATING COIL 0 CONTROLLER", Maximum Actuated Flow is zero.
   ** Warning ** Chiller:Electric:EIR = CHILLER 1:  Integrated Part Load Value (IPLV) calculated is not at the AHRI test condition.
   **   ~~~   **  Check limits in Cooling Capacity Function of Temperature Curve, Curve Type = Curve:Biquadratic, Curve Name = CHILLER 1 COOLINGCAPTEMPCURVE_ASHRAE90.1
   **   ~~~   **  Check limits in EIR Function of Temperature Curve, Curve Type = Curve:Biquadratic, Curve Name = CHILLER 1 COOLINGEIRRATIOTEMPCURVE_ASHRAE90.1
   ** Warning ** Output:Meter:MeterFileOnly: invalid Key Name="GAS:FACILITY" - not found.
   ************* Testing Individual Branch Integrity
   ************* All Branches passed integrity testing
   ************* Testing Individual Supply Air Path Integrity
   ************* All Supply Air Paths passed integrity testing
   ************* Testing Individual Return Air Path Integrity
   ************* All Return Air Paths passed integrity testing
   ************* No node connection errors were found.
   ************* Beginning Simulation
   ** Warning ** Temperature out of range [-100. to 200.] (PsyPsatFnTemp)
   **   ~~~   **  Routine=PsyTwbFnTdbWPb, Environment=RUNPERIOD 1, at Simulation time=01/10 21:00 - 21:10
   **   ~~~   **  Input Temperature=-127.66
   ************* Simulation Error Summary *************
   ************* There are 124 unused schedules in input.
   ************* There are 1 unused week schedules in input.
   ************* There are 1 unused day schedules in input.
   ************* Use Output:Diagnostics,DisplayUnusedSchedules; to see them.
   *************
   ************* ===== Recurring Error Summary =====
   ************* The following recurring error messages occurred.
   *************
   *************  ** Warning ** Temperature out of range [-100. to 200.] (PsyPsatFnTemp)
   *************  **   ~~~   **   This error occurred 1 total times;
   *************  **   ~~~   **   during Warmup 0 times;
   *************  **   ~~~   **   during Sizing 0 times.
   *************  **   ~~~   **   Max=-127.668457 C  Min=-127.668457 C
   *************
   *************
   ************* ===== Final Error Summary =====
   ************* The following error categories occurred.  Consider correcting or noting.
   ************* Nominally Unused Constructions
   ************* ..The nominally unused constructions warning is provided to alert you to potential conditions that can cause
   ************* ..extra time during simulation. Each construction is calculated by the algorithm indicated in the HeatBalanceAlgorithm
   ************* ..object. You may remove the constructions indicated (when you use the DisplayExtraWarnings option).
   *************
   ************* EnergyPlus Warmup Error Summary. During Warmup: 0 Warning; 0 Severe Errors.
   ************* EnergyPlus Sizing Error Summary. During Sizing: 196 Warning; 0 Severe Errors.
   ************* EnergyPlus Completed Successfully-- 314 Warning; 0 Severe Errors; Elapsed Time=00hr 04min 10.88sec
