Program Version,EnergyPlus, Version 24.2.0-94a887817b, YMD=2025.03.11 16:02,
   ************* Beginning Zone Sizing Calculations
   ** Warning ** Weather file location will be used rather than entered (IDF) Location object.
   **   ~~~   ** ..Location object=NEW.YORK-JOHN.F.KENNEDY.INTL.AP_NY_USA WMO=744860
   **   ~~~   ** ..Weather File Location=Shanghai Shanghai CHN CSWD WMO#=583620
   **   ~~~   ** ..due to location differences, Latitude difference=[9.26] degrees, Longitude difference=[195.25] degrees.
   **   ~~~   ** ..Time Zone difference=[13.0] hour(s), Elevation difference=[21.43] percent, [1.50] meters.
   ** Warning ** ProcessScheduleInput: Schedule:Constant="VAV_1 MAX OA FRACTION", Blank Schedule Type Limits Name input -- will not be validated.
   ** Warning ** ProcessScheduleInput: Schedule:Constant="VAV_2 MAX OA FRACTION", Blank Schedule Type Limits Name input -- will not be validated.
   ** Warning ** CalculateZoneVolume: The Zone="LAB_FLR_3" is not fully enclosed. To be fully enclosed, each edge of a surface must also be an edge on one other surface.
   **   ~~~   **   The zone volume was calculated using the floor area times ceiling height method where the floor and ceiling are the same except for the z-coordinates.
   **   ~~~   **   The surface "LAB_FLR_3_WALL_1_NORTH" has an edge that was used only once: it is not an edge on another surface
   **   ~~~   **     Vertex start { -33.5280, 9.1440, 8.5366}
   **   ~~~   **     Vertex end   { -33.5280, 9.1440, 12.8049}
   **   ~~~   **   The surface "LAB_FLR_3_WALL_WEST" has an edge that was used only once: it is not an edge on another surface
   **   ~~~   **     Vertex start { -33.5820, 9.1440, 12.8049}
   **   ~~~   **     Vertex end   { -33.5820, 9.1440, 8.5366}
   ** Warning ** CalculateZoneVolume: The Zone="LAB_FLR_4" is not fully enclosed. To be fully enclosed, each edge of a surface must also be an edge on one other surface.
   **   ~~~   **   The zone volume was calculated using the floor area times ceiling height method where the floor and ceiling are the same except for the z-coordinates.
   **   ~~~   **   The surface "LAB_FLR_4_WALL_1_NORTH" has an edge that was used only once: it is not an edge on another surface
   **   ~~~   **     Vertex start { -33.5280, 9.1440, 12.8049}
   **   ~~~   **     Vertex end   { -33.5280, 9.1440, 17.0732}
   **   ~~~   **   The surface "LAB_FLR_4_WALL_WEST" has an edge that was used only once: it is not an edge on another surface
   **   ~~~   **     Vertex start { -33.5820, 9.1440, 17.0732}
   **   ~~~   **     Vertex end   { -33.5820, 9.1440, 12.8049}
   ** Warning ** CheckUsedConstructions: There are 22 nominally unused constructions in input.
   **   ~~~   ** Each Unused construction is shown.
   ************* Construction=DROPCEILING
   ************* Construction=OPAQUEDOOR
   ************* Construction=ATTICROOFDECK
   ************* Construction=EXT_SLAB_8IN
   ************* Construction=EXT_SLAB_6IN_WITH_CARPET
   ************* Construction=EXT_SLAB_6IN
   ************* Construction=BASEMENT_WALL
   ************* Construction=INT_WOOD_FLOOR
   ************* Construction=EXT_SOFFIT_FLOOR
   ************* Construction=RES_ROOF
   ************* Construction=SEMIHEATED_ROOF
   ************* Construction=RES_EXT_WALL_GRD
   ************* Construction=RES_EXT_WALL_TOP
   ************* Construction=SEMIHEATED_EXT_WALL_GRD
   ************* Construction=SEMIHEATED_EXT_WALL_MID
   ************* Construction=SEMIHEATED_EXT_WALL_TOP
   ************* Construction=NONRES_FLOOR
   ************* Construction=RES_FLOOR
   ************* Construction=SEMIHEATED_FLOOR
   ************* Construction=NONRES_FLOOR_CEILING
   ************* Construction=RES_FLOOR_CEILING
   ************* Construction=SEMIHEATED_FLOOR_CEILING
   ** Warning ** GetDaylightingControls: Fraction of zone or space controlled by the Daylighting reference points is < 1.0.
   **   ~~~   ** ..discovered in Daylighting:Controls="OFFICE1_FLR_5_DAYLCTRL", only 0.770 of the zone or space is controlled.
   ** Warning ** GetDaylightingControls: Fraction of zone or space controlled by the Daylighting reference points is < 1.0.
   **   ~~~   ** ..discovered in Daylighting:Controls="OFFICE3_FLR_5_DAYLCTRL", only 0.770 of the zone or space is controlled.
   ** Warning ** GetDaylightingControls: Fraction of zone or space controlled by the Daylighting reference points is < 1.0.
   **   ~~~   ** ..discovered in Daylighting:Controls="LOBBY_RECORDS_FLR_1_DAYLCTRL", only 0.150 of the zone or space is controlled.
   ** Warning ** GetDaylightingControls: Fraction of zone or space controlled by the Daylighting reference points is < 1.0.
   **   ~~~   ** ..discovered in Daylighting:Controls="OFFICE4_MULT6_FLR_5_DAYLCTRL", only 0.940 of the zone or space is controlled.
   ** Warning ** GetDaylightingControls: Fraction of zone or space controlled by the Daylighting reference points is < 1.0.
   **   ~~~   ** ..discovered in Daylighting:Controls="OFFICE2_MULT5_FLR_5_DAYLCTRL", only 0.470 of the zone or space is controlled.
   ** Warning ** GetDaylightingControls: Fraction of zone or space controlled by the Daylighting reference points is < 1.0.
   **   ~~~   ** ..discovered in Daylighting:Controls="DINING_FLR_5_DAYLCTRL", only 0.190 of the zone or space is controlled.
   ** Warning ** GetSimpleAirModelInputs: ZoneInfiltration:DesignFlowRate="BASEMENT_INFILTRATION", Design Flow Rate Calculation Method specifies Flow Rate per Exterior Surface Area, but Exterior Wall Area = 0.  0 Infiltration will result.
   ** Warning ** GetSimpleAirModelInputs: ZoneInfiltration:DesignFlowRate="OR4_FLR_2_INFILTRATION", Design Flow Rate Calculation Method specifies Flow Rate per Exterior Surface Area, but Exterior Wall Area = 0.  0 Infiltration will result.
   ** Warning ** GetSimpleAirModelInputs: ZoneInfiltration:DesignFlowRate="ICU_NURSESTN_LOBBY_FLR_2_INFILTRATION", Design Flow Rate Calculation Method specifies Flow Rate per Exterior Surface Area, but Exterior Wall Area = 0.  0 Infiltration will result.
   ** Warning ** GetSimpleAirModelInputs: ZoneInfiltration:DesignFlowRate="PHYSTHERAPY_FLR_3_INFILTRATION", Design Flow Rate Calculation Method specifies Flow Rate per Exterior Surface Area, but Exterior Wall Area = 0.  0 Infiltration will result.
   ** Warning ** GetSimpleAirModelInputs: ZoneInfiltration:DesignFlowRate="NURSESTN_LOBBY_FLR_3_INFILTRATION", Design Flow Rate Calculation Method specifies Flow Rate per Exterior Surface Area, but Exterior Wall Area = 0.  0 Infiltration will result.
   ** Warning ** GetSimpleAirModelInputs: ZoneInfiltration:DesignFlowRate="LAB_FLR_3_INFILTRATION", Design Flow Rate Calculation Method specifies Flow Rate per Exterior Surface Area, but Exterior Wall Area = 0.  0 Infiltration will result.
   ** Warning ** GetSimpleAirModelInputs: ZoneInfiltration:DesignFlowRate="RADIOLOGY_FLR_4_INFILTRATION", Design Flow Rate Calculation Method specifies Flow Rate per Exterior Surface Area, but Exterior Wall Area = 0.  0 Infiltration will result.
   ** Warning ** GetSimpleAirModelInputs: ZoneInfiltration:DesignFlowRate="NURSESTN_LOBBY_FLR_4_INFILTRATION", Design Flow Rate Calculation Method specifies Flow Rate per Exterior Surface Area, but Exterior Wall Area = 0.  0 Infiltration will result.
   ** Warning ** GetSimpleAirModelInputs: ZoneInfiltration:DesignFlowRate="LAB_FLR_4_INFILTRATION", Design Flow Rate Calculation Method specifies Flow Rate per Exterior Surface Area, but Exterior Wall Area = 0.  0 Infiltration will result.
   ** Warning ** GetElectricEIRChillerInput: Chiller:Electric:EIR="HEAT RECOVERY CHILLER"
   **   ~~~   ** Capacity ratio as a function of temperature curve output is not equal to 1.0 (+ or - 10%) at reference conditions.
   **   ~~~   ** Curve output at reference conditions = 1.192
   ** Warning ** GetElectricEIRChillerInput: Chiller:Electric:EIR="HEAT RECOVERY CHILLER"
   **   ~~~   ** Energy input ratio as a function of temperature curve output is not equal to 1.0 (+ or - 10%) at reference conditions.
   **   ~~~   ** Curve output at reference conditions = 0.666
   ** Warning ** GeneratorController constructor ElectricLoadCenter:Generators, Availability Schedule for Generator:PVWatts 'PV_MODULE' will be be ignored (runs all the time).
   ** Warning ** Calculated design heating load for zone=BASEMENT is zero.
   **   ~~~   ** Check Sizing:Zone and ZoneControl:Thermostat inputs.
   ** Warning ** Calculated design heating load for zone=OR4_FLR_2 is zero.
   **   ~~~   ** Check Sizing:Zone and ZoneControl:Thermostat inputs.
   ** Warning ** Calculated design heating load for zone=ICU_NURSESTN_LOBBY_FLR_2 is zero.
   **   ~~~   ** Check Sizing:Zone and ZoneControl:Thermostat inputs.
   ************* Beginning System Sizing Calculations
   ** Warning ** ManageSizing: Calculated Heating Design Air Flow Rate for System=VAV_1 is zero.
   **   ~~~   ** Check Sizing:Zone and ZoneControl:Thermostat inputs.
   ** Warning ** ManageSizing: Calculated Heating Design Air Flow Rate for System=VAV_2 is zero.
   **   ~~~   ** Check Sizing:Zone and ZoneControl:Thermostat inputs.
   ** Warning ** ManageSizing: Calculated Heating Design Air Flow Rate for System=VAV_LABS is zero.
   **   ~~~   ** Check Sizing:Zone and ZoneControl:Thermostat inputs.
   ************* Beginning Plant Sizing Calculations
   ************* SizeHVACSingleDuct: Potential issue with equipment sizing for AirTerminal:SingleDuct:VAV:Reheat = "BASEMENT VAV BOX COMPONENT".
   **   ~~~   ** User-Specified Minimum Cooling Air Flow Fraction of 0.47200
   **   ~~~   ** differs from Design Size Minimum Cooling Air Flow Fraction of 0.65149
   **   ~~~   ** This may, or may not, indicate mismatched component sizes.
   **   ~~~   ** Verify that the value entered is intended and is consistent with other components.
   ************* SizeHVACSingleDuct: Potential issue with equipment sizing for AirTerminal:SingleDuct:VAV:Reheat = "BASEMENT VAV BOX COMPONENT".
   **   ~~~   ** User-Specified Maximum Flow Fraction during Reheat of 0.50000 []
   **   ~~~   ** differs from Design Size Maximum Flow Fraction during Reheat of 1.00000 []
   **   ~~~   ** This may, or may not, indicate mismatched component sizes.
   **   ~~~   ** Verify that the value entered is intended and is consistent with other components.
   ************* SizeHVACSingleDuct: Potential issue with equipment sizing for AirTerminal:SingleDuct:VAV:Reheat = "ER_EXAM1_MULT4_FLR_1 VAV BOX COMPONENT".
   **   ~~~   ** User-Specified Maximum Flow Fraction during Reheat of 0.50000 []
   **   ~~~   ** differs from Design Size Maximum Flow Fraction during Reheat of 1.00000 []
   **   ~~~   ** This may, or may not, indicate mismatched component sizes.
   **   ~~~   ** Verify that the value entered is intended and is consistent with other components.
   ************* SizeHVACSingleDuct: Potential issue with equipment sizing for AirTerminal:SingleDuct:VAV:Reheat = "ER_TRAUMA1_FLR_1 VAV BOX COMPONENT".
   **   ~~~   ** User-Specified Maximum Flow Fraction during Reheat of 0.50000 []
   **   ~~~   ** differs from Design Size Maximum Flow Fraction during Reheat of 1.00000 []
   **   ~~~   ** This may, or may not, indicate mismatched component sizes.
   **   ~~~   ** Verify that the value entered is intended and is consistent with other components.
   ************* SizeHVACSingleDuct: Potential issue with equipment sizing for AirTerminal:SingleDuct:VAV:Reheat = "ER_EXAM3_MULT4_FLR_1 VAV BOX COMPONENT".
   **   ~~~   ** User-Specified Maximum Flow Fraction during Reheat of 0.50000 []
   **   ~~~   ** differs from Design Size Maximum Flow Fraction during Reheat of 1.00000 []
   **   ~~~   ** This may, or may not, indicate mismatched component sizes.
   **   ~~~   ** Verify that the value entered is intended and is consistent with other components.
   ************* SizeHVACSingleDuct: Potential issue with equipment sizing for AirTerminal:SingleDuct:VAV:Reheat = "ER_TRAUMA2_FLR_1 VAV BOX COMPONENT".
   **   ~~~   ** User-Specified Maximum Flow Fraction during Reheat of 0.50000 []
   **   ~~~   ** differs from Design Size Maximum Flow Fraction during Reheat of 1.00000 []
   **   ~~~   ** This may, or may not, indicate mismatched component sizes.
   **   ~~~   ** Verify that the value entered is intended and is consistent with other components.
   ************* SizeHVACSingleDuct: Potential issue with equipment sizing for AirTerminal:SingleDuct:VAV:Reheat = "ER_TRIAGE_MULT4_FLR_1 VAV BOX COMPONENT".
   **   ~~~   ** User-Specified Maximum Flow Fraction during Reheat of 0.50000 []
   **   ~~~   ** differs from Design Size Maximum Flow Fraction during Reheat of 1.00000 []
   **   ~~~   ** This may, or may not, indicate mismatched component sizes.
   **   ~~~   ** Verify that the value entered is intended and is consistent with other components.
   ************* SizeHVACSingleDuct: Potential issue with equipment sizing for AirTerminal:SingleDuct:VAV:Reheat = "OFFICE1_MULT4_FLR_1 VAV BOX COMPONENT".
   **   ~~~   ** User-Specified Maximum Flow Fraction during Reheat of 0.50000 []
   **   ~~~   ** differs from Design Size Maximum Flow Fraction during Reheat of 1.00000 []
   **   ~~~   ** This may, or may not, indicate mismatched component sizes.
   **   ~~~   ** Verify that the value entered is intended and is consistent with other components.
   ************* SizeHVACSingleDuct: Potential issue with equipment sizing for AirTerminal:SingleDuct:VAV:Reheat = "LOBBY_RECORDS_FLR_1 VAV BOX COMPONENT".
   **   ~~~   ** User-Specified Minimum Cooling Air Flow Fraction of 0.51100
   **   ~~~   ** differs from Design Size Minimum Cooling Air Flow Fraction of 0.81953
   **   ~~~   ** This may, or may not, indicate mismatched component sizes.
   **   ~~~   ** Verify that the value entered is intended and is consistent with other components.
   ************* SizeHVACSingleDuct: Potential issue with equipment sizing for AirTerminal:SingleDuct:VAV:Reheat = "LOBBY_RECORDS_FLR_1 VAV BOX COMPONENT".
   **   ~~~   ** User-Specified Maximum Flow Fraction during Reheat of 0.50000 []
   **   ~~~   ** differs from Design Size Maximum Flow Fraction during Reheat of 1.00000 []
   **   ~~~   ** This may, or may not, indicate mismatched component sizes.
   **   ~~~   ** Verify that the value entered is intended and is consistent with other components.
   ************* SizeHVACSingleDuct: Potential issue with equipment sizing for AirTerminal:SingleDuct:VAV:Reheat = "CORRIDOR_FLR_1 VAV BOX COMPONENT".
   **   ~~~   ** User-Specified Minimum Cooling Air Flow Fraction of 0.53300
   **   ~~~   ** differs from Design Size Minimum Cooling Air Flow Fraction of 0.89390
   **   ~~~   ** This may, or may not, indicate mismatched component sizes.
   **   ~~~   ** Verify that the value entered is intended and is consistent with other components.
   ************* SizeHVACSingleDuct: Potential issue with equipment sizing for AirTerminal:SingleDuct:VAV:Reheat = "CORRIDOR_FLR_1 VAV BOX COMPONENT".
   **   ~~~   ** User-Specified Maximum Flow Fraction during Reheat of 0.50000 []
   **   ~~~   ** differs from Design Size Maximum Flow Fraction during Reheat of 1.00000 []
   **   ~~~   ** This may, or may not, indicate mismatched component sizes.
   **   ~~~   ** Verify that the value entered is intended and is consistent with other components.
   ************* SizeHVACSingleDuct: Potential issue with equipment sizing for AirTerminal:SingleDuct:VAV:Reheat = "ER_NURSESTN_LOBBY_FLR_1 VAV BOX COMPONENT".
   **   ~~~   ** User-Specified Minimum Cooling Air Flow Fraction of 0.26600
   **   ~~~   ** differs from Design Size Minimum Cooling Air Flow Fraction of 0.39772
   **   ~~~   ** This may, or may not, indicate mismatched component sizes.
   **   ~~~   ** Verify that the value entered is intended and is consistent with other components.
   ************* SizeHVACSingleDuct: Potential issue with equipment sizing for AirTerminal:SingleDuct:VAV:Reheat = "ER_NURSESTN_LOBBY_FLR_1 VAV BOX COMPONENT".
   **   ~~~   ** User-Specified Maximum Flow Fraction during Reheat of 0.50000 []
   **   ~~~   ** differs from Design Size Maximum Flow Fraction during Reheat of 1.00000 []
   **   ~~~   ** This may, or may not, indicate mismatched component sizes.
   **   ~~~   ** Verify that the value entered is intended and is consistent with other components.
   ************* SizeHVACSingleDuct: Potential issue with equipment sizing for AirTerminal:SingleDuct:VAV:Reheat = "OR1_FLR_2 VAV BOX COMPONENT".
   **   ~~~   ** User-Specified Maximum Flow Fraction during Reheat of 0.50000 []
   **   ~~~   ** differs from Design Size Maximum Flow Fraction during Reheat of 0.60000 []
   **   ~~~   ** This may, or may not, indicate mismatched component sizes.
   **   ~~~   ** Verify that the value entered is intended and is consistent with other components.
   ************* SizeHVACSingleDuct: Potential issue with equipment sizing for AirTerminal:SingleDuct:VAV:Reheat = "OR2_MULT5_FLR_2 VAV BOX COMPONENT".
   **   ~~~   ** User-Specified Maximum Flow Fraction during Reheat of 0.50000 []
   **   ~~~   ** differs from Design Size Maximum Flow Fraction during Reheat of 0.60000 []
   **   ~~~   ** This may, or may not, indicate mismatched component sizes.
   **   ~~~   ** Verify that the value entered is intended and is consistent with other components.
   ************* SizeHVACSingleDuct: Potential issue with equipment sizing for AirTerminal:SingleDuct:VAV:Reheat = "OR3_FLR_2 VAV BOX COMPONENT".
   **   ~~~   ** User-Specified Maximum Flow Fraction during Reheat of 0.50000 []
   **   ~~~   ** differs from Design Size Maximum Flow Fraction during Reheat of 0.60000 []
   **   ~~~   ** This may, or may not, indicate mismatched component sizes.
   **   ~~~   ** Verify that the value entered is intended and is consistent with other components.
   ************* SizeHVACSingleDuct: Potential issue with equipment sizing for AirTerminal:SingleDuct:VAV:Reheat = "OR4_FLR_2 VAV BOX COMPONENT".
   **   ~~~   ** User-Specified Maximum Flow Fraction during Reheat of 0.50000 []
   **   ~~~   ** differs from Design Size Maximum Flow Fraction during Reheat of 0.60000 []
   **   ~~~   ** This may, or may not, indicate mismatched component sizes.
   **   ~~~   ** Verify that the value entered is intended and is consistent with other components.
   ************* SizeHVACSingleDuct: Potential issue with equipment sizing for AirTerminal:SingleDuct:VAV:Reheat = "IC_PATROOM1_MULT5_FLR_2 VAV BOX COMPONENT".
   **   ~~~   ** User-Specified Maximum Flow Fraction during Reheat of 0.50000 []
   **   ~~~   ** differs from Design Size Maximum Flow Fraction during Reheat of 1.00000 []
   **   ~~~   ** This may, or may not, indicate mismatched component sizes.
   **   ~~~   ** Verify that the value entered is intended and is consistent with other components.
   ************* SizeHVACSingleDuct: Potential issue with equipment sizing for AirTerminal:SingleDuct:VAV:Reheat = "IC_PATROOM2_FLR_2 VAV BOX COMPONENT".
   **   ~~~   ** User-Specified Maximum Flow Fraction during Reheat of 0.50000 []
   **   ~~~   ** differs from Design Size Maximum Flow Fraction during Reheat of 1.00000 []
   **   ~~~   ** This may, or may not, indicate mismatched component sizes.
   **   ~~~   ** Verify that the value entered is intended and is consistent with other components.
   ************* SizeHVACSingleDuct: Potential issue with equipment sizing for AirTerminal:SingleDuct:VAV:Reheat = "IC_PATROOM3_MULT6_FLR_2 VAV BOX COMPONENT".
   **   ~~~   ** User-Specified Maximum Flow Fraction during Reheat of 0.50000 []
   **   ~~~   ** differs from Design Size Maximum Flow Fraction during Reheat of 1.00000 []
   **   ~~~   ** This may, or may not, indicate mismatched component sizes.
   **   ~~~   ** Verify that the value entered is intended and is consistent with other components.
   ************* SizeHVACSingleDuct: Potential issue with equipment sizing for AirTerminal:SingleDuct:VAV:Reheat = "ICU_FLR_2 VAV BOX COMPONENT".
   **   ~~~   ** User-Specified Maximum Flow Fraction during Reheat of 0.50000 []
   **   ~~~   ** differs from Design Size Maximum Flow Fraction during Reheat of 1.00000 []
   **   ~~~   ** This may, or may not, indicate mismatched component sizes.
   **   ~~~   ** Verify that the value entered is intended and is consistent with other components.
   ************* SizeHVACSingleDuct: Potential issue with equipment sizing for AirTerminal:SingleDuct:VAV:Reheat = "ICU_NURSESTN_LOBBY_FLR_2 VAV BOX COMPONENT".
   **   ~~~   ** User-Specified Minimum Cooling Air Flow Fraction of 0.20900
   **   ~~~   ** differs from Design Size Minimum Cooling Air Flow Fraction of 0.31336
   **   ~~~   ** This may, or may not, indicate mismatched component sizes.
   **   ~~~   ** Verify that the value entered is intended and is consistent with other components.
   ************* SizeHVACSingleDuct: Potential issue with equipment sizing for AirTerminal:SingleDuct:VAV:Reheat = "ICU_NURSESTN_LOBBY_FLR_2 VAV BOX COMPONENT".
   **   ~~~   ** User-Specified Maximum Flow Fraction during Reheat of 0.50000 []
   **   ~~~   ** differs from Design Size Maximum Flow Fraction during Reheat of 0.83563 []
   **   ~~~   ** This may, or may not, indicate mismatched component sizes.
   **   ~~~   ** Verify that the value entered is intended and is consistent with other components.
   ************* SizeHVACSingleDuct: Potential issue with equipment sizing for AirTerminal:SingleDuct:VAV:Reheat = "CORRIDOR_FLR_2 VAV BOX COMPONENT".
   **   ~~~   ** User-Specified Minimum Cooling Air Flow Fraction of 0.74000
   **   ~~~   ** differs from Design Size Minimum Cooling Air Flow Fraction of 1.00000
   **   ~~~   ** This may, or may not, indicate mismatched component sizes.
   **   ~~~   ** Verify that the value entered is intended and is consistent with other components.
   ************* SizeHVACSingleDuct: Potential issue with equipment sizing for AirTerminal:SingleDuct:VAV:Reheat = "CORRIDOR_FLR_2 VAV BOX COMPONENT".
   **   ~~~   ** User-Specified Maximum Flow Fraction during Reheat of 0.50000 []
   **   ~~~   ** differs from Design Size Maximum Flow Fraction during Reheat of 1.00000 []
   **   ~~~   ** This may, or may not, indicate mismatched component sizes.
   **   ~~~   ** Verify that the value entered is intended and is consistent with other components.
   ************* SizeHVACSingleDuct: Potential issue with equipment sizing for AirTerminal:SingleDuct:VAV:Reheat = "OR_NURSESTN_LOBBY_FLR_2 VAV BOX COMPONENT".
   **   ~~~   ** User-Specified Minimum Cooling Air Flow Fraction of 0.25700
   **   ~~~   ** differs from Design Size Minimum Cooling Air Flow Fraction of 0.38672
   **   ~~~   ** This may, or may not, indicate mismatched component sizes.
   **   ~~~   ** Verify that the value entered is intended and is consistent with other components.
   ************* SizeHVACSingleDuct: Potential issue with equipment sizing for AirTerminal:SingleDuct:VAV:Reheat = "OR_NURSESTN_LOBBY_FLR_2 VAV BOX COMPONENT".
   **   ~~~   ** User-Specified Maximum Flow Fraction during Reheat of 0.50000 []
   **   ~~~   ** differs from Design Size Maximum Flow Fraction during Reheat of 1.00000 []
   **   ~~~   ** This may, or may not, indicate mismatched component sizes.
   **   ~~~   ** Verify that the value entered is intended and is consistent with other components.
   ************* SizeHVACSingleDuct: Potential issue with equipment sizing for AirTerminal:SingleDuct:VAV:Reheat = "PATROOM1_MULT10_FLR_3 VAV BOX COMPONENT".
   **   ~~~   ** User-Specified Minimum Cooling Air Flow Fraction of 0.50000
   **   ~~~   ** differs from Design Size Minimum Cooling Air Flow Fraction of 1.00000
   **   ~~~   ** This may, or may not, indicate mismatched component sizes.
   **   ~~~   ** Verify that the value entered is intended and is consistent with other components.
   ************* SizeHVACSingleDuct: Potential issue with equipment sizing for AirTerminal:SingleDuct:VAV:Reheat = "PATROOM1_MULT10_FLR_3 VAV BOX COMPONENT".
   **   ~~~   ** User-Specified Maximum Flow Fraction during Reheat of 0.50000 []
   **   ~~~   ** differs from Design Size Maximum Flow Fraction during Reheat of 0.95245 []
   **   ~~~   ** This may, or may not, indicate mismatched component sizes.
   **   ~~~   ** Verify that the value entered is intended and is consistent with other components.
   ************* SizeHVACSingleDuct: Potential issue with equipment sizing for AirTerminal:SingleDuct:VAV:Reheat = "PATROOM2_FLR_3 VAV BOX COMPONENT".
   **   ~~~   ** User-Specified Minimum Cooling Air Flow Fraction of 0.50000
   **   ~~~   ** differs from Design Size Minimum Cooling Air Flow Fraction of 1.00000
   **   ~~~   ** This may, or may not, indicate mismatched component sizes.
   **   ~~~   ** Verify that the value entered is intended and is consistent with other components.
   ************* SizeHVACSingleDuct: Potential issue with equipment sizing for AirTerminal:SingleDuct:VAV:Reheat = "PATROOM2_FLR_3 VAV BOX COMPONENT".
   **   ~~~   ** User-Specified Maximum Flow Fraction during Reheat of 0.50000 []
   **   ~~~   ** differs from Design Size Maximum Flow Fraction during Reheat of 0.57147 []
   **   ~~~   ** This may, or may not, indicate mismatched component sizes.
   **   ~~~   ** Verify that the value entered is intended and is consistent with other components.
   ************* SizeHVACSingleDuct: Potential issue with equipment sizing for AirTerminal:SingleDuct:VAV:Reheat = "PATROOM3_MULT10_FLR_3 VAV BOX COMPONENT".
   **   ~~~   ** User-Specified Minimum Cooling Air Flow Fraction of 0.50000
   **   ~~~   ** differs from Design Size Minimum Cooling Air Flow Fraction of 1.00000
   **   ~~~   ** This may, or may not, indicate mismatched component sizes.
   **   ~~~   ** Verify that the value entered is intended and is consistent with other components.
   ************* SizeHVACSingleDuct: Potential issue with equipment sizing for AirTerminal:SingleDuct:VAV:Reheat = "PATROOM3_MULT10_FLR_3 VAV BOX COMPONENT".
   **   ~~~   ** User-Specified Maximum Flow Fraction during Reheat of 0.50000 []
   **   ~~~   ** differs from Design Size Maximum Flow Fraction during Reheat of 0.98520 []
   **   ~~~   ** This may, or may not, indicate mismatched component sizes.
   **   ~~~   ** Verify that the value entered is intended and is consistent with other components.
   ************* SizeHVACSingleDuct: Potential issue with equipment sizing for AirTerminal:SingleDuct:VAV:Reheat = "PATROOM4_FLR_3 VAV BOX COMPONENT".
   **   ~~~   ** User-Specified Minimum Cooling Air Flow Fraction of 0.50000
   **   ~~~   ** differs from Design Size Minimum Cooling Air Flow Fraction of 1.00000
   **   ~~~   ** This may, or may not, indicate mismatched component sizes.
   **   ~~~   ** Verify that the value entered is intended and is consistent with other components.
   ************* SizeHVACSingleDuct: Potential issue with equipment sizing for AirTerminal:SingleDuct:VAV:Reheat = "PATROOM4_FLR_3 VAV BOX COMPONENT".
   **   ~~~   ** User-Specified Maximum Flow Fraction during Reheat of 0.50000 []
   **   ~~~   ** differs from Design Size Maximum Flow Fraction during Reheat of 0.57147 []
   **   ~~~   ** This may, or may not, indicate mismatched component sizes.
   **   ~~~   ** Verify that the value entered is intended and is consistent with other components.
   ************* SizeHVACSingleDuct: Potential issue with equipment sizing for AirTerminal:SingleDuct:VAV:Reheat = "PATROOM5_MULT10_FLR_3 VAV BOX COMPONENT".
   **   ~~~   ** User-Specified Minimum Cooling Air Flow Fraction of 0.50000
   **   ~~~   ** differs from Design Size Minimum Cooling Air Flow Fraction of 1.00000
   **   ~~~   ** This may, or may not, indicate mismatched component sizes.
   **   ~~~   ** Verify that the value entered is intended and is consistent with other components.
   ************* SizeHVACSingleDuct: Potential issue with equipment sizing for AirTerminal:SingleDuct:VAV:Reheat = "PATROOM5_MULT10_FLR_3 VAV BOX COMPONENT".
   **   ~~~   ** User-Specified Maximum Flow Fraction during Reheat of 0.50000 []
   **   ~~~   ** differs from Design Size Maximum Flow Fraction during Reheat of 0.95245 []
   **   ~~~   ** This may, or may not, indicate mismatched component sizes.
   **   ~~~   ** Verify that the value entered is intended and is consistent with other components.
   ************* SizeHVACSingleDuct: Potential issue with equipment sizing for AirTerminal:SingleDuct:VAV:Reheat = "PHYSTHERAPY_FLR_3 VAV BOX COMPONENT".
   **   ~~~   ** User-Specified Minimum Cooling Air Flow Fraction of 0.29000
   **   ~~~   ** differs from Design Size Minimum Cooling Air Flow Fraction of 0.38649
   **   ~~~   ** This may, or may not, indicate mismatched component sizes.
   **   ~~~   ** Verify that the value entered is intended and is consistent with other components.
   ************* SizeHVACSingleDuct: Potential issue with equipment sizing for AirTerminal:SingleDuct:VAV:Reheat = "PHYSTHERAPY_FLR_3 VAV BOX COMPONENT".
   **   ~~~   ** User-Specified Maximum Flow Fraction during Reheat of 0.50000 []
   **   ~~~   ** differs from Design Size Maximum Flow Fraction during Reheat of 1.00000 []
   **   ~~~   ** This may, or may not, indicate mismatched component sizes.
   **   ~~~   ** Verify that the value entered is intended and is consistent with other components.
   ************* SizeHVACSingleDuct: Potential issue with equipment sizing for AirTerminal:SingleDuct:VAV:Reheat = "PATROOM6_FLR_3 VAV BOX COMPONENT".
   **   ~~~   ** User-Specified Minimum Cooling Air Flow Fraction of 0.50000
   **   ~~~   ** differs from Design Size Minimum Cooling Air Flow Fraction of 1.00000
   **   ~~~   ** This may, or may not, indicate mismatched component sizes.
   **   ~~~   ** Verify that the value entered is intended and is consistent with other components.
   ************* SizeHVACSingleDuct: Potential issue with equipment sizing for AirTerminal:SingleDuct:VAV:Reheat = "PATROOM6_FLR_3 VAV BOX COMPONENT".
   **   ~~~   ** User-Specified Maximum Flow Fraction during Reheat of 0.50000 []
   **   ~~~   ** differs from Design Size Maximum Flow Fraction during Reheat of 0.71433 []
   **   ~~~   ** This may, or may not, indicate mismatched component sizes.
   **   ~~~   ** Verify that the value entered is intended and is consistent with other components.
   ************* SizeHVACSingleDuct: Potential issue with equipment sizing for AirTerminal:SingleDuct:VAV:Reheat = "PATROOM7_MULT10_FLR_3 VAV BOX COMPONENT".
   **   ~~~   ** User-Specified Minimum Cooling Air Flow Fraction of 0.50000
   **   ~~~   ** differs from Design Size Minimum Cooling Air Flow Fraction of 1.00000
   **   ~~~   ** This may, or may not, indicate mismatched component sizes.
   **   ~~~   ** Verify that the value entered is intended and is consistent with other components.
   ************* SizeHVACSingleDuct: Potential issue with equipment sizing for AirTerminal:SingleDuct:VAV:Reheat = "PATROOM7_MULT10_FLR_3 VAV BOX COMPONENT".
   **   ~~~   ** User-Specified Maximum Flow Fraction during Reheat of 0.50000 []
   **   ~~~   ** differs from Design Size Maximum Flow Fraction during Reheat of 0.98520 []
   **   ~~~   ** This may, or may not, indicate mismatched component sizes.
   **   ~~~   ** Verify that the value entered is intended and is consistent with other components.
   ************* SizeHVACSingleDuct: Potential issue with equipment sizing for AirTerminal:SingleDuct:VAV:Reheat = "PATROOM8_FLR_3 VAV BOX COMPONENT".
   **   ~~~   ** User-Specified Minimum Cooling Air Flow Fraction of 0.50000
   **   ~~~   ** differs from Design Size Minimum Cooling Air Flow Fraction of 1.00000
   **   ~~~   ** This may, or may not, indicate mismatched component sizes.
   **   ~~~   ** Verify that the value entered is intended and is consistent with other components.
   ************* SizeHVACSingleDuct: Potential issue with equipment sizing for AirTerminal:SingleDuct:VAV:Reheat = "PATROOM8_FLR_3 VAV BOX COMPONENT".
   **   ~~~   ** User-Specified Maximum Flow Fraction during Reheat of 0.50000 []
   **   ~~~   ** differs from Design Size Maximum Flow Fraction during Reheat of 0.71433 []
   **   ~~~   ** This may, or may not, indicate mismatched component sizes.
   **   ~~~   ** Verify that the value entered is intended and is consistent with other components.
   ************* SizeHVACSingleDuct: Potential issue with equipment sizing for AirTerminal:SingleDuct:VAV:Reheat = "NURSESTN_LOBBY_FLR_3 VAV BOX COMPONENT".
   **   ~~~   ** User-Specified Minimum Cooling Air Flow Fraction of 0.32600
   **   ~~~   ** differs from Design Size Minimum Cooling Air Flow Fraction of 0.48907
   **   ~~~   ** This may, or may not, indicate mismatched component sizes.
   **   ~~~   ** Verify that the value entered is intended and is consistent with other components.
   ************* SizeHVACSingleDuct: Potential issue with equipment sizing for AirTerminal:SingleDuct:VAV:Reheat = "NURSESTN_LOBBY_FLR_3 VAV BOX COMPONENT".
   **   ~~~   ** User-Specified Maximum Flow Fraction during Reheat of 0.50000 []
   **   ~~~   ** differs from Design Size Maximum Flow Fraction during Reheat of 1.00000 []
   **   ~~~   ** This may, or may not, indicate mismatched component sizes.
   **   ~~~   ** Verify that the value entered is intended and is consistent with other components.
   ************* SizeHVACSingleDuct: Potential issue with equipment sizing for AirTerminal:SingleDuct:VAV:Reheat = "LAB_FLR_3 VAV BOX COMPONENT".
   **   ~~~   ** User-Specified Minimum Cooling Air Flow Fraction of 1.00000
   **   ~~~   ** differs from Design Size Minimum Cooling Air Flow Fraction of 0.19485
   **   ~~~   ** This may, or may not, indicate mismatched component sizes.
   **   ~~~   ** Verify that the value entered is intended and is consistent with other components.
   ************* SizeHVACSingleDuct: Potential issue with equipment sizing for AirTerminal:SingleDuct:VAV:Reheat = "LAB_FLR_3 VAV BOX COMPONENT".
   **   ~~~   ** User-Specified Maximum Flow Fraction during Reheat of 0.50000 []
   **   ~~~   ** differs from Design Size Maximum Flow Fraction during Reheat of 1.00000 []
   **   ~~~   ** This may, or may not, indicate mismatched component sizes.
   **   ~~~   ** Verify that the value entered is intended and is consistent with other components.
   ************* SizeHVACSingleDuct: Potential issue with equipment sizing for AirTerminal:SingleDuct:VAV:Reheat = "CORRIDOR_SE_FLR_3 VAV BOX COMPONENT".
   **   ~~~   ** User-Specified Minimum Cooling Air Flow Fraction of 0.66600
   **   ~~~   ** differs from Design Size Minimum Cooling Air Flow Fraction of 1.00000
   **   ~~~   ** This may, or may not, indicate mismatched component sizes.
   **   ~~~   ** Verify that the value entered is intended and is consistent with other components.
   ************* SizeHVACSingleDuct: Potential issue with equipment sizing for AirTerminal:SingleDuct:VAV:Reheat = "CORRIDOR_SE_FLR_3 VAV BOX COMPONENT".
   **   ~~~   ** User-Specified Maximum Flow Fraction during Reheat of 0.50000 []
   **   ~~~   ** differs from Design Size Maximum Flow Fraction during Reheat of 1.00000 []
   **   ~~~   ** This may, or may not, indicate mismatched component sizes.
   **   ~~~   ** Verify that the value entered is intended and is consistent with other components.
   ************* SizeHVACSingleDuct: Potential issue with equipment sizing for AirTerminal:SingleDuct:VAV:Reheat = "CORRIDOR_NW_FLR_3 VAV BOX COMPONENT".
   **   ~~~   ** User-Specified Minimum Cooling Air Flow Fraction of 0.66400
   **   ~~~   ** differs from Design Size Minimum Cooling Air Flow Fraction of 1.00000
   **   ~~~   ** This may, or may not, indicate mismatched component sizes.
   **   ~~~   ** Verify that the value entered is intended and is consistent with other components.
   ************* SizeHVACSingleDuct: Potential issue with equipment sizing for AirTerminal:SingleDuct:VAV:Reheat = "CORRIDOR_NW_FLR_3 VAV BOX COMPONENT".
   **   ~~~   ** User-Specified Maximum Flow Fraction during Reheat of 0.50000 []
   **   ~~~   ** differs from Design Size Maximum Flow Fraction during Reheat of 1.00000 []
   **   ~~~   ** This may, or may not, indicate mismatched component sizes.
   **   ~~~   ** Verify that the value entered is intended and is consistent with other components.
   ************* SizeHVACSingleDuct: Potential issue with equipment sizing for AirTerminal:SingleDuct:VAV:Reheat = "PATROOM1_MULT10_FLR_4 VAV BOX COMPONENT".
   **   ~~~   ** User-Specified Minimum Cooling Air Flow Fraction of 0.50000
   **   ~~~   ** differs from Design Size Minimum Cooling Air Flow Fraction of 1.00000
   **   ~~~   ** This may, or may not, indicate mismatched component sizes.
   **   ~~~   ** Verify that the value entered is intended and is consistent with other components.
   ************* SizeHVACSingleDuct: Potential issue with equipment sizing for AirTerminal:SingleDuct:VAV:Reheat = "PATROOM1_MULT10_FLR_4 VAV BOX COMPONENT".
   **   ~~~   ** User-Specified Maximum Flow Fraction during Reheat of 0.50000 []
   **   ~~~   ** differs from Design Size Maximum Flow Fraction during Reheat of 0.95245 []
   **   ~~~   ** This may, or may not, indicate mismatched component sizes.
   **   ~~~   ** Verify that the value entered is intended and is consistent with other components.
   ************* SizeHVACSingleDuct: Potential issue with equipment sizing for AirTerminal:SingleDuct:VAV:Reheat = "PATROOM2_FLR_4 VAV BOX COMPONENT".
   **   ~~~   ** User-Specified Minimum Cooling Air Flow Fraction of 0.50000
   **   ~~~   ** differs from Design Size Minimum Cooling Air Flow Fraction of 1.00000
   **   ~~~   ** This may, or may not, indicate mismatched component sizes.
   **   ~~~   ** Verify that the value entered is intended and is consistent with other components.
   ************* SizeHVACSingleDuct: Potential issue with equipment sizing for AirTerminal:SingleDuct:VAV:Reheat = "PATROOM2_FLR_4 VAV BOX COMPONENT".
   **   ~~~   ** User-Specified Maximum Flow Fraction during Reheat of 0.50000 []
   **   ~~~   ** differs from Design Size Maximum Flow Fraction during Reheat of 0.57147 []
   **   ~~~   ** This may, or may not, indicate mismatched component sizes.
   **   ~~~   ** Verify that the value entered is intended and is consistent with other components.
   ************* SizeHVACSingleDuct: Potential issue with equipment sizing for AirTerminal:SingleDuct:VAV:Reheat = "PATROOM3_MULT10_FLR_4 VAV BOX COMPONENT".
   **   ~~~   ** User-Specified Minimum Cooling Air Flow Fraction of 0.50000
   **   ~~~   ** differs from Design Size Minimum Cooling Air Flow Fraction of 1.00000
   **   ~~~   ** This may, or may not, indicate mismatched component sizes.
   **   ~~~   ** Verify that the value entered is intended and is consistent with other components.
   ************* SizeHVACSingleDuct: Potential issue with equipment sizing for AirTerminal:SingleDuct:VAV:Reheat = "PATROOM3_MULT10_FLR_4 VAV BOX COMPONENT".
   **   ~~~   ** User-Specified Maximum Flow Fraction during Reheat of 0.50000 []
   **   ~~~   ** differs from Design Size Maximum Flow Fraction during Reheat of 0.98520 []
   **   ~~~   ** This may, or may not, indicate mismatched component sizes.
   **   ~~~   ** Verify that the value entered is intended and is consistent with other components.
   ************* SizeHVACSingleDuct: Potential issue with equipment sizing for AirTerminal:SingleDuct:VAV:Reheat = "PATROOM4_FLR_4 VAV BOX COMPONENT".
   **   ~~~   ** User-Specified Minimum Cooling Air Flow Fraction of 0.50000
   **   ~~~   ** differs from Design Size Minimum Cooling Air Flow Fraction of 1.00000
   **   ~~~   ** This may, or may not, indicate mismatched component sizes.
   **   ~~~   ** Verify that the value entered is intended and is consistent with other components.
   ************* SizeHVACSingleDuct: Potential issue with equipment sizing for AirTerminal:SingleDuct:VAV:Reheat = "PATROOM4_FLR_4 VAV BOX COMPONENT".
   **   ~~~   ** User-Specified Maximum Flow Fraction during Reheat of 0.50000 []
   **   ~~~   ** differs from Design Size Maximum Flow Fraction during Reheat of 0.57147 []
   **   ~~~   ** This may, or may not, indicate mismatched component sizes.
   **   ~~~   ** Verify that the value entered is intended and is consistent with other components.
   ************* SizeHVACSingleDuct: Potential issue with equipment sizing for AirTerminal:SingleDuct:VAV:Reheat = "PATROOM5_MULT10_FLR_4 VAV BOX COMPONENT".
   **   ~~~   ** User-Specified Minimum Cooling Air Flow Fraction of 0.50000
   **   ~~~   ** differs from Design Size Minimum Cooling Air Flow Fraction of 1.00000
   **   ~~~   ** This may, or may not, indicate mismatched component sizes.
   **   ~~~   ** Verify that the value entered is intended and is consistent with other components.
   ************* SizeHVACSingleDuct: Potential issue with equipment sizing for AirTerminal:SingleDuct:VAV:Reheat = "PATROOM5_MULT10_FLR_4 VAV BOX COMPONENT".
   **   ~~~   ** User-Specified Maximum Flow Fraction during Reheat of 0.50000 []
   **   ~~~   ** differs from Design Size Maximum Flow Fraction during Reheat of 0.95245 []
   **   ~~~   ** This may, or may not, indicate mismatched component sizes.
   **   ~~~   ** Verify that the value entered is intended and is consistent with other components.
   ************* SizeHVACSingleDuct: Potential issue with equipment sizing for AirTerminal:SingleDuct:VAV:Reheat = "RADIOLOGY_FLR_4 VAV BOX COMPONENT".
   **   ~~~   ** User-Specified Minimum Cooling Air Flow Fraction of 6.90000E-002
   **   ~~~   ** differs from Design Size Minimum Cooling Air Flow Fraction of 9.25226E-002
   **   ~~~   ** This may, or may not, indicate mismatched component sizes.
   **   ~~~   ** Verify that the value entered is intended and is consistent with other components.
   ************* SizeHVACSingleDuct: Potential issue with equipment sizing for AirTerminal:SingleDuct:VAV:Reheat = "RADIOLOGY_FLR_4 VAV BOX COMPONENT".
   **   ~~~   ** User-Specified Maximum Flow Fraction during Reheat of 0.50000 []
   **   ~~~   ** differs from Design Size Maximum Flow Fraction during Reheat of 0.30000 []
   **   ~~~   ** This may, or may not, indicate mismatched component sizes.
   **   ~~~   ** Verify that the value entered is intended and is consistent with other components.
   ************* SizeHVACSingleDuct: Potential issue with equipment sizing for AirTerminal:SingleDuct:VAV:Reheat = "PATROOM6_FLR_4 VAV BOX COMPONENT".
   **   ~~~   ** User-Specified Minimum Cooling Air Flow Fraction of 0.50000
   **   ~~~   ** differs from Design Size Minimum Cooling Air Flow Fraction of 1.00000
   **   ~~~   ** This may, or may not, indicate mismatched component sizes.
   **   ~~~   ** Verify that the value entered is intended and is consistent with other components.
   ************* SizeHVACSingleDuct: Potential issue with equipment sizing for AirTerminal:SingleDuct:VAV:Reheat = "PATROOM6_FLR_4 VAV BOX COMPONENT".
   **   ~~~   ** User-Specified Maximum Flow Fraction during Reheat of 0.50000 []
   **   ~~~   ** differs from Design Size Maximum Flow Fraction during Reheat of 0.71433 []
   **   ~~~   ** This may, or may not, indicate mismatched component sizes.
   **   ~~~   ** Verify that the value entered is intended and is consistent with other components.
   ************* SizeHVACSingleDuct: Potential issue with equipment sizing for AirTerminal:SingleDuct:VAV:Reheat = "PATROOM7_MULT10_FLR_4 VAV BOX COMPONENT".
   **   ~~~   ** User-Specified Minimum Cooling Air Flow Fraction of 0.50000
   **   ~~~   ** differs from Design Size Minimum Cooling Air Flow Fraction of 1.00000
   **   ~~~   ** This may, or may not, indicate mismatched component sizes.
   **   ~~~   ** Verify that the value entered is intended and is consistent with other components.
   ************* SizeHVACSingleDuct: Potential issue with equipment sizing for AirTerminal:SingleDuct:VAV:Reheat = "PATROOM7_MULT10_FLR_4 VAV BOX COMPONENT".
   **   ~~~   ** User-Specified Maximum Flow Fraction during Reheat of 0.50000 []
   **   ~~~   ** differs from Design Size Maximum Flow Fraction during Reheat of 0.98520 []
   **   ~~~   ** This may, or may not, indicate mismatched component sizes.
   **   ~~~   ** Verify that the value entered is intended and is consistent with other components.
   ************* SizeHVACSingleDuct: Potential issue with equipment sizing for AirTerminal:SingleDuct:VAV:Reheat = "PATROOM8_FLR_4 VAV BOX COMPONENT".
   **   ~~~   ** User-Specified Minimum Cooling Air Flow Fraction of 0.50000
   **   ~~~   ** differs from Design Size Minimum Cooling Air Flow Fraction of 1.00000
   **   ~~~   ** This may, or may not, indicate mismatched component sizes.
   **   ~~~   ** Verify that the value entered is intended and is consistent with other components.
   ************* SizeHVACSingleDuct: Potential issue with equipment sizing for AirTerminal:SingleDuct:VAV:Reheat = "PATROOM8_FLR_4 VAV BOX COMPONENT".
   **   ~~~   ** User-Specified Maximum Flow Fraction during Reheat of 0.50000 []
   **   ~~~   ** differs from Design Size Maximum Flow Fraction during Reheat of 0.71433 []
   **   ~~~   ** This may, or may not, indicate mismatched component sizes.
   **   ~~~   ** Verify that the value entered is intended and is consistent with other components.
   ************* SizeHVACSingleDuct: Potential issue with equipment sizing for AirTerminal:SingleDuct:VAV:Reheat = "NURSESTN_LOBBY_FLR_4 VAV BOX COMPONENT".
   **   ~~~   ** User-Specified Minimum Cooling Air Flow Fraction of 0.30200
   **   ~~~   ** differs from Design Size Minimum Cooling Air Flow Fraction of 0.45312
   **   ~~~   ** This may, or may not, indicate mismatched component sizes.
   **   ~~~   ** Verify that the value entered is intended and is consistent with other components.
   ************* SizeHVACSingleDuct: Potential issue with equipment sizing for AirTerminal:SingleDuct:VAV:Reheat = "NURSESTN_LOBBY_FLR_4 VAV BOX COMPONENT".
   **   ~~~   ** User-Specified Maximum Flow Fraction during Reheat of 0.50000 []
   **   ~~~   ** differs from Design Size Maximum Flow Fraction during Reheat of 1.00000 []
   **   ~~~   ** This may, or may not, indicate mismatched component sizes.
   **   ~~~   ** Verify that the value entered is intended and is consistent with other components.
   ************* SizeHVACSingleDuct: Potential issue with equipment sizing for AirTerminal:SingleDuct:VAV:Reheat = "LAB_FLR_4 VAV BOX COMPONENT".
   **   ~~~   ** User-Specified Minimum Cooling Air Flow Fraction of 1.00000
   **   ~~~   ** differs from Design Size Minimum Cooling Air Flow Fraction of 0.19382
   **   ~~~   ** This may, or may not, indicate mismatched component sizes.
   **   ~~~   ** Verify that the value entered is intended and is consistent with other components.
   ************* SizeHVACSingleDuct: Potential issue with equipment sizing for AirTerminal:SingleDuct:VAV:Reheat = "LAB_FLR_4 VAV BOX COMPONENT".
   **   ~~~   ** User-Specified Maximum Flow Fraction during Reheat of 0.50000 []
   **   ~~~   ** differs from Design Size Maximum Flow Fraction during Reheat of 1.00000 []
   **   ~~~   ** This may, or may not, indicate mismatched component sizes.
   **   ~~~   ** Verify that the value entered is intended and is consistent with other components.
   ************* SizeHVACSingleDuct: Potential issue with equipment sizing for AirTerminal:SingleDuct:VAV:Reheat = "CORRIDOR_SE_FLR_4 VAV BOX COMPONENT".
   **   ~~~   ** User-Specified Minimum Cooling Air Flow Fraction of 0.57800
   **   ~~~   ** differs from Design Size Minimum Cooling Air Flow Fraction of 0.96551
   **   ~~~   ** This may, or may not, indicate mismatched component sizes.
   **   ~~~   ** Verify that the value entered is intended and is consistent with other components.
   ************* SizeHVACSingleDuct: Potential issue with equipment sizing for AirTerminal:SingleDuct:VAV:Reheat = "CORRIDOR_SE_FLR_4 VAV BOX COMPONENT".
   **   ~~~   ** User-Specified Maximum Flow Fraction during Reheat of 0.50000 []
   **   ~~~   ** differs from Design Size Maximum Flow Fraction during Reheat of 1.00000 []
   **   ~~~   ** This may, or may not, indicate mismatched component sizes.
   **   ~~~   ** Verify that the value entered is intended and is consistent with other components.
   ************* SizeHVACSingleDuct: Potential issue with equipment sizing for AirTerminal:SingleDuct:VAV:Reheat = "CORRIDOR_NW_FLR_4 VAV BOX COMPONENT".
   **   ~~~   ** User-Specified Minimum Cooling Air Flow Fraction of 0.58100
   **   ~~~   ** differs from Design Size Minimum Cooling Air Flow Fraction of 0.97080
   **   ~~~   ** This may, or may not, indicate mismatched component sizes.
   **   ~~~   ** Verify that the value entered is intended and is consistent with other components.
   ************* SizeHVACSingleDuct: Potential issue with equipment sizing for AirTerminal:SingleDuct:VAV:Reheat = "CORRIDOR_NW_FLR_4 VAV BOX COMPONENT".
   **   ~~~   ** User-Specified Maximum Flow Fraction during Reheat of 0.50000 []
   **   ~~~   ** differs from Design Size Maximum Flow Fraction during Reheat of 1.00000 []
   **   ~~~   ** This may, or may not, indicate mismatched component sizes.
   **   ~~~   ** Verify that the value entered is intended and is consistent with other components.
   ************* SizeHVACSingleDuct: Potential issue with equipment sizing for AirTerminal:SingleDuct:VAV:Reheat = "DINING_FLR_5 VAV BOX COMPONENT".
   **   ~~~   ** User-Specified Minimum Cooling Air Flow Fraction of 0.68500
   **   ~~~   ** differs from Design Size Minimum Cooling Air Flow Fraction of 0.26862
   **   ~~~   ** This may, or may not, indicate mismatched component sizes.
   **   ~~~   ** Verify that the value entered is intended and is consistent with other components.
   ************* SizeHVACSingleDuct: Potential issue with equipment sizing for AirTerminal:SingleDuct:VAV:Reheat = "DINING_FLR_5 VAV BOX COMPONENT".
   **   ~~~   ** User-Specified Maximum Flow Fraction during Reheat of 0.50000 []
   **   ~~~   ** differs from Design Size Maximum Flow Fraction during Reheat of 0.71632 []
   **   ~~~   ** This may, or may not, indicate mismatched component sizes.
   **   ~~~   ** Verify that the value entered is intended and is consistent with other components.
   ************* SizeHVACSingleDuct: Potential issue with equipment sizing for AirTerminal:SingleDuct:VAV:Reheat = "NURSESTN_LOBBY_FLR_5 VAV BOX COMPONENT".
   **   ~~~   ** User-Specified Minimum Cooling Air Flow Fraction of 0.23500
   **   ~~~   ** differs from Design Size Minimum Cooling Air Flow Fraction of 0.35069
   **   ~~~   ** This may, or may not, indicate mismatched component sizes.
   **   ~~~   ** Verify that the value entered is intended and is consistent with other components.
   ************* SizeHVACSingleDuct: Potential issue with equipment sizing for AirTerminal:SingleDuct:VAV:Reheat = "NURSESTN_LOBBY_FLR_5 VAV BOX COMPONENT".
   **   ~~~   ** User-Specified Maximum Flow Fraction during Reheat of 0.50000 []
   **   ~~~   ** differs from Design Size Maximum Flow Fraction during Reheat of 0.93517 []
   **   ~~~   ** This may, or may not, indicate mismatched component sizes.
   **   ~~~   ** Verify that the value entered is intended and is consistent with other components.
   ************* SizeHVACSingleDuct: Potential issue with equipment sizing for AirTerminal:SingleDuct:VAV:Reheat = "OFFICE2_MULT5_FLR_5 VAV BOX COMPONENT".
   **   ~~~   ** User-Specified Minimum Cooling Air Flow Fraction of 0.25900
   **   ~~~   ** differs from Design Size Minimum Cooling Air Flow Fraction of 0.29468
   **   ~~~   ** This may, or may not, indicate mismatched component sizes.
   **   ~~~   ** Verify that the value entered is intended and is consistent with other components.
   ************* SizeHVACSingleDuct: Potential issue with equipment sizing for AirTerminal:SingleDuct:VAV:Reheat = "OFFICE2_MULT5_FLR_5 VAV BOX COMPONENT".
   **   ~~~   ** User-Specified Maximum Flow Fraction during Reheat of 0.50000 []
   **   ~~~   ** differs from Design Size Maximum Flow Fraction during Reheat of 0.78581 []
   **   ~~~   ** This may, or may not, indicate mismatched component sizes.
   **   ~~~   ** Verify that the value entered is intended and is consistent with other components.
   ************* SizeHVACSingleDuct: Potential issue with equipment sizing for AirTerminal:SingleDuct:VAV:Reheat = "OFFICE4_MULT6_FLR_5 VAV BOX COMPONENT".
   **   ~~~   ** User-Specified Maximum Flow Fraction during Reheat of 0.50000 []
   **   ~~~   ** differs from Design Size Maximum Flow Fraction during Reheat of 1.00000 []
   **   ~~~   ** This may, or may not, indicate mismatched component sizes.
   **   ~~~   ** Verify that the value entered is intended and is consistent with other components.
   ************* SizeHVACSingleDuct: Potential issue with equipment sizing for AirTerminal:SingleDuct:VAV:Reheat = "CORRIDOR_FLR_5 VAV BOX COMPONENT".
   **   ~~~   ** User-Specified Minimum Cooling Air Flow Fraction of 0.36300
   **   ~~~   ** differs from Design Size Minimum Cooling Air Flow Fraction of 0.59797
   **   ~~~   ** This may, or may not, indicate mismatched component sizes.
   **   ~~~   ** Verify that the value entered is intended and is consistent with other components.
   ************* SizeHVACSingleDuct: Potential issue with equipment sizing for AirTerminal:SingleDuct:VAV:Reheat = "CORRIDOR_FLR_5 VAV BOX COMPONENT".
   **   ~~~   ** User-Specified Maximum Flow Fraction during Reheat of 0.50000 []
   **   ~~~   ** differs from Design Size Maximum Flow Fraction during Reheat of 1.00000 []
   **   ~~~   ** This may, or may not, indicate mismatched component sizes.
   **   ~~~   ** Verify that the value entered is intended and is consistent with other components.
   ** Warning ** Controller:MechanicalVentilation="VAV_1_DCV", Zone OA/person rate
   **   ~~~   ** For Zone="BASEMENT".
   **   ~~~   ** Zone outside air per person rate not set in Design Specification Outdoor Air Object="SZ DSOA BASEMENT".
   ** Warning ** Controller:MechanicalVentilation="VAV_1_DCV", Zone OA/person rate
   **   ~~~   ** For Zone="OFFICE1_MULT4_FLR_1".
   **   ~~~   ** Zone outside air per person rate not set in Design Specification Outdoor Air Object="SZ DSOA OFFICE1_MULT4_FLR_1".
   ** Warning ** Controller:MechanicalVentilation="VAV_1_DCV", Zone OA/person rate
   **   ~~~   ** For Zone="LOBBY_RECORDS_FLR_1".
   **   ~~~   ** Zone outside air per person rate not set in Design Specification Outdoor Air Object="SZ DSOA LOBBY_RECORDS_FLR_1".
   ** Warning ** Controller:MechanicalVentilation="VAV_1_DCV", Zone OA/person rate
   **   ~~~   ** For Zone="CORRIDOR_FLR_1".
   **   ~~~   ** Zone outside air per person rate not set in Design Specification Outdoor Air Object="SZ DSOA CORRIDOR_FLR_1".
   ** Warning ** Controller:MechanicalVentilation="VAV_1_DCV", Zone OA/person rate
   **   ~~~   ** For Zone="ER_NURSESTN_LOBBY_FLR_1".
   **   ~~~   ** Zone outside air per person rate not set in Design Specification Outdoor Air Object="SZ DSOA ER_NURSESTN_LOBBY_FLR_1".
   ** Warning ** Controller:MechanicalVentilation="VAV_1_DCV", Zone OA/person rate
   **   ~~~   ** For Zone="ICU_NURSESTN_LOBBY_FLR_2".
   **   ~~~   ** Zone outside air per person rate not set in Design Specification Outdoor Air Object="SZ DSOA ICU_NURSESTN_LOBBY_FLR_2".
   ** Warning ** Controller:MechanicalVentilation="VAV_1_DCV", Zone OA/person rate
   **   ~~~   ** For Zone="CORRIDOR_FLR_2".
   **   ~~~   ** Zone outside air per person rate not set in Design Specification Outdoor Air Object="SZ DSOA CORRIDOR_FLR_2".
   ** Warning ** Controller:MechanicalVentilation="VAV_1_DCV", Zone OA/person rate
   **   ~~~   ** For Zone="OR_NURSESTN_LOBBY_FLR_2".
   **   ~~~   ** Zone outside air per person rate not set in Design Specification Outdoor Air Object="SZ DSOA OR_NURSESTN_LOBBY_FLR_2".
   ** Warning ** Controller:MechanicalVentilation="VAV_2_DCV", Zone OA/person rate
   **   ~~~   ** For Zone="PHYSTHERAPY_FLR_3".
   **   ~~~   ** Zone outside air per person rate not set in Design Specification Outdoor Air Object="SZ DSOA PHYSTHERAPY_FLR_3".
   ** Warning ** Controller:MechanicalVentilation="VAV_2_DCV", Zone OA/person rate
   **   ~~~   ** For Zone="NURSESTN_LOBBY_FLR_3".
   **   ~~~   ** Zone outside air per person rate not set in Design Specification Outdoor Air Object="SZ DSOA NURSESTN_LOBBY_FLR_3".
   ** Warning ** Controller:MechanicalVentilation="VAV_2_DCV", Zone OA/person rate
   **   ~~~   ** For Zone="CORRIDOR_SE_FLR_3".
   **   ~~~   ** Zone outside air per person rate not set in Design Specification Outdoor Air Object="SZ DSOA CORRIDOR_SE_FLR_3".
   ** Warning ** Controller:MechanicalVentilation="VAV_2_DCV", Zone OA/person rate
   **   ~~~   ** For Zone="CORRIDOR_NW_FLR_3".
   **   ~~~   ** Zone outside air per person rate not set in Design Specification Outdoor Air Object="SZ DSOA CORRIDOR_NW_FLR_3".
   ** Warning ** Controller:MechanicalVentilation="VAV_2_DCV", Zone OA/person rate
   **   ~~~   ** For Zone="RADIOLOGY_FLR_4".
   **   ~~~   ** Zone outside air per person rate not set in Design Specification Outdoor Air Object="SZ DSOA RADIOLOGY_FLR_4".
   ** Warning ** Controller:MechanicalVentilation="VAV_2_DCV", Zone OA/person rate
   **   ~~~   ** For Zone="NURSESTN_LOBBY_FLR_4".
   **   ~~~   ** Zone outside air per person rate not set in Design Specification Outdoor Air Object="SZ DSOA NURSESTN_LOBBY_FLR_4".
   ** Warning ** Controller:MechanicalVentilation="VAV_2_DCV", Zone OA/person rate
   **   ~~~   ** For Zone="CORRIDOR_SE_FLR_4".
   **   ~~~   ** Zone outside air per person rate not set in Design Specification Outdoor Air Object="SZ DSOA CORRIDOR_SE_FLR_4".
   ** Warning ** Controller:MechanicalVentilation="VAV_2_DCV", Zone OA/person rate
   **   ~~~   ** For Zone="CORRIDOR_NW_FLR_4".
   **   ~~~   ** Zone outside air per person rate not set in Design Specification Outdoor Air Object="SZ DSOA CORRIDOR_NW_FLR_4".
   ** Warning ** Controller:MechanicalVentilation="VAV_2_DCV", Zone OA/person rate
   **   ~~~   ** For Zone="DINING_FLR_5".
   **   ~~~   ** Zone outside air per person rate not set in Design Specification Outdoor Air Object="SZ DSOA DINING_FLR_5".
   ** Warning ** Controller:MechanicalVentilation="VAV_2_DCV", Zone OA/person rate
   **   ~~~   ** For Zone="NURSESTN_LOBBY_FLR_5".
   **   ~~~   ** Zone outside air per person rate not set in Design Specification Outdoor Air Object="SZ DSOA NURSESTN_LOBBY_FLR_5".
   ** Warning ** Controller:MechanicalVentilation="VAV_2_DCV", Zone OA/person rate
   **   ~~~   ** For Zone="OFFICE1_FLR_5".
   **   ~~~   ** Zone outside air per person rate not set in Design Specification Outdoor Air Object="SZ DSOA OFFICE1_FLR_5".
   ** Warning ** Controller:MechanicalVentilation="VAV_2_DCV", Zone OA/person rate
   **   ~~~   ** For Zone="OFFICE2_MULT5_FLR_5".
   **   ~~~   ** Zone outside air per person rate not set in Design Specification Outdoor Air Object="SZ DSOA OFFICE2_MULT5_FLR_5".
   ** Warning ** Controller:MechanicalVentilation="VAV_2_DCV", Zone OA/person rate
   **   ~~~   ** For Zone="OFFICE3_FLR_5".
   **   ~~~   ** Zone outside air per person rate not set in Design Specification Outdoor Air Object="SZ DSOA OFFICE3_FLR_5".
   ** Warning ** Controller:MechanicalVentilation="VAV_2_DCV", Zone OA/person rate
   **   ~~~   ** For Zone="OFFICE4_MULT6_FLR_5".
   **   ~~~   ** Zone outside air per person rate not set in Design Specification Outdoor Air Object="SZ DSOA OFFICE4_MULT6_FLR_5".
   ** Warning ** Controller:MechanicalVentilation="VAV_2_DCV", Zone OA/person rate
   **   ~~~   ** For Zone="CORRIDOR_FLR_5".
   **   ~~~   ** Zone outside air per person rate not set in Design Specification Outdoor Air Object="SZ DSOA CORRIDOR_FLR_5".
   ************* SizeWaterCoil: Potential issue with equipment sizing for Coil:Cooling:Water VAV_1 COOLING COIL
   **   ~~~   ** User-Specified Design Inlet Water Temperature [C] = 8.89000
   **   ~~~   ** differs from Design Size Design Inlet Water Temperature [C] = 7.22000
   **   ~~~   ** This may, or may not, indicate mismatched component sizes.
   **   ~~~   ** Verify that the value entered is intended and is consistent with other components.
   ** Warning ** In calculating the design coil UA for Coil:Cooling:Water VAV_1 COOLING COIL
   **   ~~~   ** the coil bypass factor is unrealistically large;
   **   ~~~   ** The initial design conditions are: Tair,in = 26.7735
   **   ~~~   **                                    Wair,in = 1.061440E-002
   **   ~~~   **                                    Twater,in = 8.8900
   **   ~~~   **                                    Tair,out = 10.9656
   **   ~~~   **                                    Wair,out = 8.500000E-003
   ** Warning ** SizeWaterCoil: Potential issue with equipment sizing for Coil:Heating:Water VAV_1 HEATING COIL
   **   ~~~   ** ...Rated Total Heating Capacity = 0.00 [W]
   **   ~~~   ** ...Air flow rate used for sizing = 3.82252 [m3/s]
   **   ~~~   ** ...Outdoor air fraction used for sizing = 1.00
   **   ~~~   ** ...Coil inlet air temperature used for sizing = 0.00 [C]
   **   ~~~   ** ...Coil outlet air temperature used for sizing = -14.99 [C]
   ** Warning ** The design coil load is zero for Coil:Heating:Water VAV_1 HEATING COIL
   **   ~~~   ** The autosize value for maximum water flow rate is zero
   **   ~~~   ** To change this, input a value for UA, change the heating design day, or raise the
   **   ~~~   **   system heating design supply air temperature. Also check to make sure the Preheat
   **   ~~~   **   Design Temperature is not the same as the Central Heating Design Supply Air Temperature. 
   ** Warning ** InitController: Controller:WaterCoil="VAV_1_HEATC_CONTROLLER", Maximum Actuated Flow is zero.
   ************* SizeWaterCoil: Potential issue with equipment sizing for Coil:Cooling:Water VAV_2 COOLING COIL
   **   ~~~   ** User-Specified Design Inlet Water Temperature [C] = 8.89000
   **   ~~~   ** differs from Design Size Design Inlet Water Temperature [C] = 7.22000
   **   ~~~   ** This may, or may not, indicate mismatched component sizes.
   **   ~~~   ** Verify that the value entered is intended and is consistent with other components.
   ** Warning ** In calculating the design coil UA for Coil:Cooling:Water VAV_2 COOLING COIL
   **   ~~~   ** the coil bypass factor is unrealistically large;
   **   ~~~   ** The initial design conditions are: Tair,in = 26.2617
   **   ~~~   **                                    Wair,in = 1.026872E-002
   **   ~~~   **                                    Twater,in = 8.8900
   **   ~~~   **                                    Tair,out = 10.9741
   **   ~~~   **                                    Wair,out = 8.500000E-003
   ** Warning ** SizeWaterCoil: Potential issue with equipment sizing for Coil:Heating:Water VAV_2 HEATING COIL
   **   ~~~   ** ...Rated Total Heating Capacity = 0.00 [W]
   **   ~~~   ** ...Air flow rate used for sizing = 4.81187 [m3/s]
   **   ~~~   ** ...Outdoor air fraction used for sizing = 0.93
   **   ~~~   ** ...Coil inlet air temperature used for sizing = 0.00 [C]
   **   ~~~   ** ...Coil outlet air temperature used for sizing = -14.99 [C]
   ** Warning ** The design coil load is zero for Coil:Heating:Water VAV_2 HEATING COIL
   **   ~~~   ** The autosize value for maximum water flow rate is zero
   **   ~~~   ** To change this, input a value for UA, change the heating design day, or raise the
   **   ~~~   **   system heating design supply air temperature. Also check to make sure the Preheat
   **   ~~~   **   Design Temperature is not the same as the Central Heating Design Supply Air Temperature. 
   ** Warning ** InitController: Controller:WaterCoil="VAV_2_HEATC_CONTROLLER", Maximum Actuated Flow is zero.
   ************* SizeWaterCoil: Potential issue with equipment sizing for Coil:Cooling:Water VAV_ER COOLING COIL
   **   ~~~   ** User-Specified Design Inlet Water Temperature [C] = 8.89000
   **   ~~~   ** differs from Design Size Design Inlet Water Temperature [C] = 7.22000
   **   ~~~   ** This may, or may not, indicate mismatched component sizes.
   **   ~~~   ** Verify that the value entered is intended and is consistent with other components.
   ** Warning ** In calculating the design coil UA for Coil:Cooling:Water VAV_ER COOLING COIL
   **   ~~~   ** the coil bypass factor is unrealistically large;
   **   ~~~   ** The initial design conditions are: Tair,in = 25.1401
   **   ~~~   **                                    Wair,in = 1.019852E-002
   **   ~~~   **                                    Twater,in = 8.8900
   **   ~~~   **                                    Tair,out = 11.0349
   **   ~~~   **                                    Wair,out = 8.500000E-003
   ** Warning ** SizeWaterCoil: Potential issue with equipment sizing for Coil:Heating:Water VAV_ER HEATING COIL
   **   ~~~   ** ...Rated Total Heating Capacity = 0.00 [W]
   **   ~~~   ** ...Air flow rate used for sizing = 5.54936 [m3/s]
   **   ~~~   ** ...Outdoor air fraction used for sizing = 0.16
   **   ~~~   ** ...Coil inlet air temperature used for sizing = 15.71 [C]
   **   ~~~   ** ...Coil outlet air temperature used for sizing = -14.99 [C]
   ** Warning ** The design coil load is zero for Coil:Heating:Water VAV_ER HEATING COIL
   **   ~~~   ** The autosize value for maximum water flow rate is zero
   **   ~~~   ** To change this, input a value for UA, change the heating design day, or raise the
   **   ~~~   **   system heating design supply air temperature. Also check to make sure the Preheat
   **   ~~~   **   Design Temperature is not the same as the Central Heating Design Supply Air Temperature. 
   ************* SizeHumidifier: Potential issue with equipment sizing for Humidifier:Steam:Electric = "VAV_ER HUMIDIFIER".
   **   ~~~   ** User-Specified Nominal Capacity Volume of 3.72E-005 [Wm3/s]
   **   ~~~   ** differs from Design Size Nominal Capacity Volume of 4.52E-005 [m3/s]
   **   ~~~   ** This may, or may not, indicate mismatched component sizes.
   **   ~~~   ** Verify that the value entered is intended and is consistent with other components.
   ** Warning ** InitController: Controller:WaterCoil="VAV_ER_HEATC_CONTROLLER", Maximum Actuated Flow is zero.
   ************* SizeWaterCoil: Potential issue with equipment sizing for Coil:Cooling:Water VAV_OR COOLING COIL
   **   ~~~   ** User-Specified Design Inlet Water Temperature [C] = 8.89000
   **   ~~~   ** differs from Design Size Design Inlet Water Temperature [C] = 7.22000
   **   ~~~   ** This may, or may not, indicate mismatched component sizes.
   **   ~~~   ** Verify that the value entered is intended and is consistent with other components.
   ** Warning ** In calculating the design coil UA for Coil:Cooling:Water VAV_OR COOLING COIL
   **   ~~~   ** the coil bypass factor is unrealistically large;
   **   ~~~   ** The initial design conditions are: Tair,in = 24.6607
   **   ~~~   **                                    Wair,in = 9.776840E-003
   **   ~~~   **                                    Twater,in = 8.8900
   **   ~~~   **                                    Tair,out = 11.0542
   **   ~~~   **                                    Wair,out = 8.500000E-003
   ** Warning ** SizeWaterCoil: Potential issue with equipment sizing for Coil:Heating:Water VAV_OR HEATING COIL
   **   ~~~   ** ...Rated Total Heating Capacity = 0.00 [W]
   **   ~~~   ** ...Air flow rate used for sizing = 10.90008 [m3/s]
   **   ~~~   ** ...Outdoor air fraction used for sizing = 0.20
   **   ~~~   ** ...Coil inlet air temperature used for sizing = 14.65 [C]
   **   ~~~   ** ...Coil outlet air temperature used for sizing = -14.99 [C]
   ** Warning ** The design coil load is zero for Coil:Heating:Water VAV_OR HEATING COIL
   **   ~~~   ** The autosize value for maximum water flow rate is zero
   **   ~~~   ** To change this, input a value for UA, change the heating design day, or raise the
   **   ~~~   **   system heating design supply air temperature. Also check to make sure the Preheat
   **   ~~~   **   Design Temperature is not the same as the Central Heating Design Supply Air Temperature. 
   ************* SizeHumidifier: Potential issue with equipment sizing for Humidifier:Steam:Electric = "VAV_OR HUMIDIFIER".
   **   ~~~   ** User-Specified Nominal Capacity Volume of 3.72E-005 [Wm3/s]
   **   ~~~   ** differs from Design Size Nominal Capacity Volume of 8.89E-005 [m3/s]
   **   ~~~   ** This may, or may not, indicate mismatched component sizes.
   **   ~~~   ** Verify that the value entered is intended and is consistent with other components.
   ** Warning ** InitController: Controller:WaterCoil="VAV_OR_HEATC_CONTROLLER", Maximum Actuated Flow is zero.
   ************* SizeWaterCoil: Potential issue with equipment sizing for Coil:Cooling:Water VAV_ICU COOLING COIL
   **   ~~~   ** User-Specified Design Inlet Water Temperature [C] = 8.89000
   **   ~~~   ** differs from Design Size Design Inlet Water Temperature [C] = 7.22000
   **   ~~~   ** This may, or may not, indicate mismatched component sizes.
   **   ~~~   ** Verify that the value entered is intended and is consistent with other components.
   ** Warning ** In calculating the design coil UA for Coil:Cooling:Water VAV_ICU COOLING COIL
   **   ~~~   ** the coil bypass factor is unrealistically large;
   **   ~~~   ** The initial design conditions are: Tair,in = 26.6455
   **   ~~~   **                                    Wair,in = 1.054869E-002
   **   ~~~   **                                    Twater,in = 8.8900
   **   ~~~   **                                    Tair,out = 10.9358
   **   ~~~   **                                    Wair,out = 8.500000E-003
   ** Warning ** SizeWaterCoil: Potential issue with equipment sizing for Coil:Heating:Water VAV_ICU HEATING COIL
   **   ~~~   ** ...Rated Total Heating Capacity = 0.00 [W]
   **   ~~~   ** ...Air flow rate used for sizing = 6.22770 [m3/s]
   **   ~~~   ** ...Outdoor air fraction used for sizing = 0.33
   **   ~~~   ** ...Coil inlet air temperature used for sizing = 10.43 [C]
   **   ~~~   ** ...Coil outlet air temperature used for sizing = -14.99 [C]
   ** Warning ** The design coil load is zero for Coil:Heating:Water VAV_ICU HEATING COIL
   **   ~~~   ** The autosize value for maximum water flow rate is zero
   **   ~~~   ** To change this, input a value for UA, change the heating design day, or raise the
   **   ~~~   **   system heating design supply air temperature. Also check to make sure the Preheat
   **   ~~~   **   Design Temperature is not the same as the Central Heating Design Supply Air Temperature. 
   ************* SizeHumidifier: Potential issue with equipment sizing for Humidifier:Steam:Electric = "VAV_ICU HUMIDIFIER".
   **   ~~~   ** User-Specified Nominal Capacity Volume of 3.72E-005 [Wm3/s]
   **   ~~~   ** differs from Design Size Nominal Capacity Volume of 5.04E-005 [m3/s]
   **   ~~~   ** This may, or may not, indicate mismatched component sizes.
   **   ~~~   ** Verify that the value entered is intended and is consistent with other components.
   ** Warning ** InitController: Controller:WaterCoil="VAV_ICU_HEATC_CONTROLLER", Maximum Actuated Flow is zero.
   ************* SizeWaterCoil: Potential issue with equipment sizing for Coil:Cooling:Water VAV_PATRMS COOLING COIL
   **   ~~~   ** User-Specified Design Inlet Water Temperature [C] = 8.89000
   **   ~~~   ** differs from Design Size Design Inlet Water Temperature [C] = 7.22000
   **   ~~~   ** This may, or may not, indicate mismatched component sizes.
   **   ~~~   ** Verify that the value entered is intended and is consistent with other components.
   ** Warning ** In calculating the design coil UA for Coil:Cooling:Water VAV_PATRMS COOLING COIL
   **   ~~~   ** the coil bypass factor is unrealistically large;
   **   ~~~   ** The initial design conditions are: Tair,in = 26.1816
   **   ~~~   **                                    Wair,in = 1.059143E-002
   **   ~~~   **                                    Twater,in = 8.8900
   **   ~~~   **                                    Tair,out = 10.9655
   **   ~~~   **                                    Wair,out = 8.500000E-003
   ** Warning ** SizeWaterCoil: Potential issue with equipment sizing for Coil:Heating:Water VAV_PATRMS HEATING COIL
   **   ~~~   ** ...Rated Total Heating Capacity = 0.00 [W]
   **   ~~~   ** ...Air flow rate used for sizing = 6.73882 [m3/s]
   **   ~~~   ** ...Outdoor air fraction used for sizing = 0.66
   **   ~~~   ** ...Coil inlet air temperature used for sizing = -0.13 [C]
   **   ~~~   ** ...Coil outlet air temperature used for sizing = -14.99 [C]
   ** Warning ** The design coil load is zero for Coil:Heating:Water VAV_PATRMS HEATING COIL
   **   ~~~   ** The autosize value for maximum water flow rate is zero
   **   ~~~   ** To change this, input a value for UA, change the heating design day, or raise the
   **   ~~~   **   system heating design supply air temperature. Also check to make sure the Preheat
   **   ~~~   **   Design Temperature is not the same as the Central Heating Design Supply Air Temperature. 
   ************* SizeHumidifier: Potential issue with equipment sizing for Humidifier:Steam:Electric = "VAV_PATRMS HUMIDIFIER".
   **   ~~~   ** User-Specified Nominal Capacity Volume of 3.72E-005 [Wm3/s]
   **   ~~~   ** differs from Design Size Nominal Capacity Volume of 1.09E-004 [m3/s]
   **   ~~~   ** This may, or may not, indicate mismatched component sizes.
   **   ~~~   ** Verify that the value entered is intended and is consistent with other components.
   ** Warning ** InitController: Controller:WaterCoil="VAV_PATRMS_HEATC_CONTROLLER", Maximum Actuated Flow is zero.
   ************* SizeWaterCoil: Potential issue with equipment sizing for Coil:Cooling:Water VAV_LABS COOLING COIL
   **   ~~~   ** User-Specified Design Inlet Water Temperature [C] = 8.89000
   **   ~~~   ** differs from Design Size Design Inlet Water Temperature [C] = 7.22000
   **   ~~~   ** This may, or may not, indicate mismatched component sizes.
   **   ~~~   ** Verify that the value entered is intended and is consistent with other components.
   ** Warning ** In calculating the design coil UA for Coil:Cooling:Water VAV_LABS COOLING COIL
   **   ~~~   ** the coil bypass factor is unrealistically large;
   **   ~~~   ** The initial design conditions are: Tair,in = 26.4135
   **   ~~~   **                                    Wair,in = 1.033357E-002
   **   ~~~   **                                    Twater,in = 8.8900
   **   ~~~   **                                    Tair,out = 11.4109
   **   ~~~   **                                    Wair,out = 8.500000E-003
   ** Warning ** SizeWaterCoil: Potential issue with equipment sizing for Coil:Heating:Water VAV_LABS HEATING COIL
   **   ~~~   ** ...Rated Total Heating Capacity = 0.00 [W]
   **   ~~~   ** ...Air flow rate used for sizing = 2.07639 [m3/s]
   **   ~~~   ** ...Outdoor air fraction used for sizing = 0.29
   **   ~~~   ** ...Coil inlet air temperature used for sizing = 0.00 [C]
   **   ~~~   ** ...Coil outlet air temperature used for sizing = -14.99 [C]
   ** Warning ** The design coil load is zero for Coil:Heating:Water VAV_LABS HEATING COIL
   **   ~~~   ** The autosize value for maximum water flow rate is zero
   **   ~~~   ** To change this, input a value for UA, change the heating design day, or raise the
   **   ~~~   **   system heating design supply air temperature. Also check to make sure the Preheat
   **   ~~~   **   Design Temperature is not the same as the Central Heating Design Supply Air Temperature. 
   ************* SizeHumidifier: Potential issue with equipment sizing for Humidifier:Steam:Electric = "VAV_LABS HUMIDIFIER".
   **   ~~~   ** User-Specified Nominal Capacity Volume of 3.72E-005 [Wm3/s]
   **   ~~~   ** differs from Design Size Nominal Capacity Volume of 2.04E-005 [m3/s]
   **   ~~~   ** This may, or may not, indicate mismatched component sizes.
   **   ~~~   ** Verify that the value entered is intended and is consistent with other components.
   ** Warning ** InitController: Controller:WaterCoil="VAV_LABS_HEATC_CONTROLLER", Maximum Actuated Flow is zero.
   ************* SizeWaterCoil: Potential issue with equipment sizing for Coil:Cooling:Water CAV_KITCHEN COOLING COIL
   **   ~~~   ** User-Specified Design Inlet Water Temperature [C] = 8.89000
   **   ~~~   ** differs from Design Size Design Inlet Water Temperature [C] = 7.22000
   **   ~~~   ** This may, or may not, indicate mismatched component sizes.
   **   ~~~   ** Verify that the value entered is intended and is consistent with other components.
   ** Warning ** In calculating the design coil UA for Coil:Cooling:Water CAV_KITCHEN COOLING COIL
   **   ~~~   ** the coil bypass factor is unrealistically large;
   **   ~~~   ** The initial design conditions are: Tair,in = 24.3461
   **   ~~~   **                                    Wair,in = 8.791089E-003
   **   ~~~   **                                    Twater,in = 8.8900
   **   ~~~   **                                    Tair,out = 11.4452
   **   ~~~   **                                    Wair,out = 8.500000E-003
   ** Severe  ** Calculation of cooling coil design UA failed for coil CAV_KITCHEN COOLING COIL
   **   ~~~   **   Bad starting values for UA
   **   ~~~   **  Coil design UA set to 33155.253082 [W/C]
   ** Warning ** SizeWaterCoil: Potential issue with equipment sizing for Coil:Heating:Water CAV_KITCHEN HEATING COIL
   **   ~~~   ** ...Rated Total Heating Capacity = 0.00 [W]
   **   ~~~   ** ...Air flow rate used for sizing = 16.95966 [m3/s]
   **   ~~~   ** ...Outdoor air fraction used for sizing = 4.38E-002
   **   ~~~   ** ...Coil inlet air temperature used for sizing = 19.45 [C]
   **   ~~~   ** ...Coil outlet air temperature used for sizing = 12.80 [C]
   ** Warning ** The design coil load is zero for Coil:Heating:Water CAV_KITCHEN HEATING COIL
   **   ~~~   ** The autosize value for maximum water flow rate is zero
   **   ~~~   ** To change this, input a value for UA, change the heating design day, or raise the
   **   ~~~   **   system heating design supply air temperature. Also check to make sure the Preheat
   **   ~~~   **   Design Temperature is not the same as the Central Heating Design Supply Air Temperature. 
   ** Warning ** InitController: Controller:WaterCoil="CAV_KITCHEN_HEATC_CONTROLLER", Maximum Actuated Flow is zero.
   ************* SizeChillerElectricEIR: Potential issue with equipment sizing for HEAT RECOVERY CHILLER
   **   ~~~   ** User-Specified Reference Chilled Water Flow Rate of 5.58977E-003 [m3/s]
   **   ~~~   ** differs from Design Size Reference Chilled Water Flow Rate of 5.43356E-002 [m3/s]
   **   ~~~   ** This may, or may not, indicate mismatched component sizes.
   **   ~~~   ** Verify that the value entered is intended and is consistent with other components.
   ************* SizeChillerElectricEIR: Potential issue with equipment sizing for HEAT RECOVERY CHILLER
   **   ~~~   ** User-Specified Reference Capacity of 127508.08 [W]
   **   ~~~   ** differs from Design Size Reference Capacity of 195447.42 [W]
   **   ~~~   ** This may, or may not, indicate mismatched component sizes.
   **   ~~~   ** Verify that the value entered is intended and is consistent with other components.
   ************* SizeChillerElectricReformulatedEIR: Potential issue with equipment sizing for COOLSYS1 CHILLER1
   **   ~~~   ** User-Specified Reference Chilled Water Flow Rate of 2.65223E-002 [m3/s]
   **   ~~~   ** differs from Design Size Reference Chilled Water Flow Rate of 5.43356E-002 [m3/s]
   **   ~~~   ** This may, or may not, indicate mismatched component sizes.
   **   ~~~   ** Verify that the value entered is intended and is consistent with other components.
   ************* SizeChillerElectricReformulatedEIR: Potential issue with equipment sizing for COOLSYS1 CHILLER2
[...]
   *************  **   ~~~   **   during Warmup 0 times;
   *************  **   ~~~   **   during Sizing 0 times.
   *************  **   ~~~   **   Max=1.777237  Min=0.347176
   *************
   *************  ** Warning ** "ER_TRAUMA2_FLR_1 SUB CAT" - Target water temperature should be less than or equal to the hot water temperature error continues...
   *************  **   ~~~   **   This error occurred 811855 total times;
   *************  **   ~~~   **   during Warmup 0 times;
   *************  **   ~~~   **   during Sizing 0 times.
   *************  **   ~~~   **   Max=1.777237  Min=0.347176
   *************
   *************  ** Warning ** "ER_TRIAGE_MULT4_FLR_1 SUB CAT" - Target water temperature should be less than or equal to the hot water temperature error continues...
   *************  **   ~~~   **   This error occurred 811855 total times;
   *************  **   ~~~   **   during Warmup 0 times;
   *************  **   ~~~   **   during Sizing 0 times.
   *************  **   ~~~   **   Max=1.777237  Min=0.347176
   *************
   *************  ** Warning ** "PATROOM1_MULT10_FLR_3 SUB CAT" - Target water temperature should be less than or equal to the hot water temperature error continues...
   *************  **   ~~~   **   This error occurred 811855 total times;
   *************  **   ~~~   **   during Warmup 0 times;
   *************  **   ~~~   **   during Sizing 0 times.
   *************  **   ~~~   **   Max=1.777237  Min=0.347176
   *************
   *************  ** Warning ** "PATROOM2_FLR_3 SUB CAT" - Target water temperature should be less than or equal to the hot water temperature error continues...
   *************  **   ~~~   **   This error occurred 811855 total times;
   *************  **   ~~~   **   during Warmup 0 times;
   *************  **   ~~~   **   during Sizing 0 times.
   *************  **   ~~~   **   Max=1.777237  Min=0.347176
   *************
   *************  ** Warning ** "PATROOM3_MULT10_FLR_3 SUB CAT" - Target water temperature should be less than or equal to the hot water temperature error continues...
   *************  **   ~~~   **   This error occurred 811855 total times;
   *************  **   ~~~   **   during Warmup 0 times;
   *************  **   ~~~   **   during Sizing 0 times.
   *************  **   ~~~   **   Max=1.777237  Min=0.347176
   *************
   *************  ** Warning ** "PATROOM4_FLR_3 SUB CAT" - Target water temperature should be less than or equal to the hot water temperature error continues...
   *************  **   ~~~   **   This error occurred 811855 total times;
   *************  **   ~~~   **   during Warmup 0 times;
   *************  **   ~~~   **   during Sizing 0 times.
   *************  **   ~~~   **   Max=1.777237  Min=0.347176
   *************
   *************  ** Warning ** "PATROOM5_MULT10_FLR_3 SUB CAT" - Target water temperature should be less than or equal to the hot water temperature error continues...
   *************  **   ~~~   **   This error occurred 811855 total times;
   *************  **   ~~~   **   during Warmup 0 times;
   *************  **   ~~~   **   during Sizing 0 times.
   *************  **   ~~~   **   Max=1.777237  Min=0.347176
   *************
   *************  ** Warning ** "PATROOM6_FLR_3 SUB CAT" - Target water temperature should be less than or equal to the hot water temperature error continues...
   *************  **   ~~~   **   This error occurred 811855 total times;
   *************  **   ~~~   **   during Warmup 0 times;
   *************  **   ~~~   **   during Sizing 0 times.
   *************  **   ~~~   **   Max=1.777237  Min=0.347176
   *************
   *************  ** Warning ** "PATROOM7_MULT10_FLR_3 SUB CAT" - Target water temperature should be less than or equal to the hot water temperature error continues...
   *************  **   ~~~   **   This error occurred 811855 total times;
   *************  **   ~~~   **   during Warmup 0 times;
   *************  **   ~~~   **   during Sizing 0 times.
   *************  **   ~~~   **   Max=1.777237  Min=0.347176
   *************
   *************  ** Warning ** "PATROOM8_FLR_3 SUB CAT" - Target water temperature should be less than or equal to the hot water temperature error continues...
   *************  **   ~~~   **   This error occurred 811855 total times;
   *************  **   ~~~   **   during Warmup 0 times;
   *************  **   ~~~   **   during Sizing 0 times.
   *************  **   ~~~   **   Max=1.777237  Min=0.347176
   *************
   *************  ** Warning ** "PATROOM1_MULT10_FLR_4 SUB CAT" - Target water temperature should be less than or equal to the hot water temperature error continues...
   *************  **   ~~~   **   This error occurred 811855 total times;
   *************  **   ~~~   **   during Warmup 0 times;
   *************  **   ~~~   **   during Sizing 0 times.
   *************  **   ~~~   **   Max=1.777237  Min=0.347176
   *************
   *************  ** Warning ** "PATROOM2_FLR_4 SUB CAT" - Target water temperature should be less than or equal to the hot water temperature error continues...
   *************  **   ~~~   **   This error occurred 811855 total times;
   *************  **   ~~~   **   during Warmup 0 times;
   *************  **   ~~~   **   during Sizing 0 times.
   *************  **   ~~~   **   Max=1.777237  Min=0.347176
   *************
   *************  ** Warning ** "PATROOM3_MULT10_FLR_4 SUB CAT" - Target water temperature should be less than or equal to the hot water temperature error continues...
   *************  **   ~~~   **   This error occurred 811855 total times;
   *************  **   ~~~   **   during Warmup 0 times;
   *************  **   ~~~   **   during Sizing 0 times.
   *************  **   ~~~   **   Max=1.777237  Min=0.347176
   *************
   *************  ** Warning ** "PATROOM4_FLR_4 SUB CAT" - Target water temperature should be less than or equal to the hot water temperature error continues...
   *************  **   ~~~   **   This error occurred 811855 total times;
   *************  **   ~~~   **   during Warmup 0 times;
   *************  **   ~~~   **   during Sizing 0 times.
   *************  **   ~~~   **   Max=1.777237  Min=0.347176
   *************
   *************  ** Warning ** "PATROOM5_MULT10_FLR_4 SUB CAT" - Target water temperature should be less than or equal to the hot water temperature error continues...
   *************  **   ~~~   **   This error occurred 811855 total times;
   *************  **   ~~~   **   during Warmup 0 times;
   *************  **   ~~~   **   during Sizing 0 times.
   *************  **   ~~~   **   Max=1.777237  Min=0.347176
   *************
   *************  ** Warning ** "RADIOLOGY_FLR_4 SUB CAT" - Target water temperature should be less than or equal to the hot water temperature error continues...
   *************  **   ~~~   **   This error occurred 811855 total times;
   *************  **   ~~~   **   during Warmup 0 times;
   *************  **   ~~~   **   during Sizing 0 times.
   *************  **   ~~~   **   Max=1.777237  Min=0.347176
   *************
   *************  ** Warning ** "PATROOM6_FLR_4 SUB CAT" - Target water temperature should be less than or equal to the hot water temperature error continues...
   *************  **   ~~~   **   This error occurred 811855 total times;
   *************  **   ~~~   **   during Warmup 0 times;
   *************  **   ~~~   **   during Sizing 0 times.
   *************  **   ~~~   **   Max=1.777237  Min=0.347176
   *************
   *************  ** Warning ** "PATROOM7_MULT10_FLR_4 SUB CAT" - Target water temperature should be less than or equal to the hot water temperature error continues...
   *************  **   ~~~   **   This error occurred 811855 total times;
   *************  **   ~~~   **   during Warmup 0 times;
   *************  **   ~~~   **   during Sizing 0 times.
   *************  **   ~~~   **   Max=1.777237  Min=0.347176
   *************
   *************  ** Warning ** "PATROOM8_FLR_4 SUB CAT" - Target water temperature should be less than or equal to the hot water temperature error continues...
   *************  **   ~~~   **   This error occurred 811855 total times;
   *************  **   ~~~   **   during Warmup 0 times;
   *************  **   ~~~   **   during Sizing 0 times.
   *************  **   ~~~   **   Max=1.777237  Min=0.347176
   *************
   *************  ** Warning ** "KITCHEN_FLR_5 SUB CAT" - Target water temperature should be less than or equal to the hot water temperature error continues...
   *************  **   ~~~   **   This error occurred 811855 total times;
   *************  **   ~~~   **   during Warmup 0 times;
   *************  **   ~~~   **   during Sizing 0 times.
   *************  **   ~~~   **   Max=1.777237  Min=0.347176
   *************
   *************  ** Warning ** "OR1_FLR_2 SUB CAT" - Target water temperature should be less than or equal to the hot water temperature error continues...
   *************  **   ~~~   **   This error occurred 459219 total times;
   *************  **   ~~~   **   during Warmup 0 times;
   *************  **   ~~~   **   during Sizing 0 times.
   *************  **   ~~~   **   Max=1.775132  Min=0.347176
   *************
   *************  ** Warning ** "OR2_MULT5_FLR_2 SUB CAT" - Target water temperature should be less than or equal to the hot water temperature error continues...
   *************  **   ~~~   **   This error occurred 459219 total times;
   *************  **   ~~~   **   during Warmup 0 times;
   *************  **   ~~~   **   during Sizing 0 times.
   *************  **   ~~~   **   Max=1.775132  Min=0.347176
   *************
   *************  ** Warning ** "OR3_FLR_2 SUB CAT" - Target water temperature should be less than or equal to the hot water temperature error continues...
   *************  **   ~~~   **   This error occurred 459219 total times;
   *************  **   ~~~   **   during Warmup 0 times;
   *************  **   ~~~   **   during Sizing 0 times.
   *************  **   ~~~   **   Max=1.775132  Min=0.347176
   *************
   *************  ** Warning ** "OR4_FLR_2 SUB CAT" - Target water temperature should be less than or equal to the hot water temperature error continues...
   *************  **   ~~~   **   This error occurred 459219 total times;
   *************  **   ~~~   **   during Warmup 0 times;
   *************  **   ~~~   **   during Sizing 0 times.
   *************  **   ~~~   **   Max=1.775132  Min=0.347176
   *************
   *************  ** Warning ** "PHYSTHERAPY_FLR_3 SUB CAT" - Target water temperature should be less than or equal to the hot water temperature error continues...
   *************  **   ~~~   **   This error occurred 459219 total times;
   *************  **   ~~~   **   during Warmup 0 times;
   *************  **   ~~~   **   during Sizing 0 times.
   *************  **   ~~~   **   Max=1.775132  Min=0.347176
   *************
   *************  ** Warning ** "LAB_FLR_3 SUB CAT" - Target water temperature should be less than or equal to the hot water temperature error continues...
   *************  **   ~~~   **   This error occurred 459219 total times;
   *************  **   ~~~   **   during Warmup 0 times;
   *************  **   ~~~   **   during Sizing 0 times.
   *************  **   ~~~   **   Max=1.775132  Min=0.347176
   *************
   *************  ** Warning ** "LAB_FLR_4 SUB CAT" - Target water temperature should be less than or equal to the hot water temperature error continues...
   *************  **   ~~~   **   This error occurred 459219 total times;
   *************  **   ~~~   **   during Warmup 0 times;
   *************  **   ~~~   **   during Sizing 0 times.
   *************  **   ~~~   **   Max=1.775132  Min=0.347176
   *************
   *************  ** Warning ** CoolingTower:VariableSpeed "TOWERWATERSYS COOLTOWER 1" - Tower range temperature is out of range error continues...
   *************  **   ~~~   **   This error occurred 15600 total times;
   *************  **   ~~~   **   during Warmup 0 times;
   *************  **   ~~~   **   during Sizing 0 times.
   *************  **   ~~~   **   Max=15.734580  Min=0.000041
   *************
   *************  ** Warning ** CoolingTower:VariableSpeed "TOWERWATERSYS COOLTOWER 1" - Tower approach temperature is out of range error continues...
   *************  **   ~~~   **   This error occurred 26011 total times;
   *************  **   ~~~   **   during Warmup 0 times;
   *************  **   ~~~   **   during Sizing 0 times.
   *************  **   ~~~   **   Max=27.422870  Min=-9.350954
   *************
   *************  ** Warning ** CoolingTower:VariableSpeed "TOWERWATERSYS COOLTOWER 1" - Water flow rate ratio is out of range error continues...
   *************  **   ~~~   **   This error occurred 12629 total times;
   *************  **   ~~~   **   during Warmup 0 times;
   *************  **   ~~~   **   during Sizing 0 times.
   *************  **   ~~~   **   Max=0.637259  Min=0.355370
   *************
   *************  ** Warning ** HeatExchanger:AirToAir:SensibleAndLatent "VAV_1 OA HEAT RECOVERY":  Average air volume flow rate is <50% or >130% warning continues. Air flow rate ratio statistics follow.
   *************  **   ~~~   **   This error occurred 103376 total times;
   *************  **   ~~~   **   during Warmup 0 times;
   *************  **   ~~~   **   during Sizing 0 times.
   *************  **   ~~~   **   Max=2.360434  Min=1.317270
   *************
   *************  ** Warning ** CHILLER:ELECTRIC:REFORMULATEDEIR "COOLSYS1 CHILLER1": The cond outlet temp range in Electric Input to Cooling Output Ratio Function of PLR curve error continues.
   *************  **   ~~~   **   This error occurred 331640 total times;
   *************  **   ~~~   **   during Warmup 0 times;
   *************  **   ~~~   **   during Sizing 0 times.
   *************  **   ~~~   **   Max=37.058840  Min=20.097403
   *************
   *************  ** Warning ** CHILLER:ELECTRIC:REFORMULATEDEIR "COOLSYS1 CHILLER1": The part-load ratio range in Electric Input to Cooling Output Ratio Function of PLRatio curve error continues.
   *************  **   ~~~   **   This error occurred 80384 total times;
   *************  **   ~~~   **   during Warmup 0 times;
   *************  **   ~~~   **   during Sizing 0 times.
   *************  **   ~~~   **   Max=0.189995  Min=0.000000
   *************
   *************  ** Warning ** CoolingTower:VariableSpeed "TOWERWATERSYS COOLTOWER 1" - Inlet air wet-bulb temperature is out of range error continues...
   *************  **   ~~~   **   This error occurred 1811 total times;
   *************  **   ~~~   **   during Warmup 0 times;
   *************  **   ~~~   **   during Sizing 0 times.
   *************  **   ~~~   **   Max=30.450954  Min=-6.322870
   *************
   *************  ** Warning ** Temperature out of range [-100. to 200.] (PsyPsatFnTemp)
   *************  **   ~~~   **   This error occurred 1 total times;
   *************  **   ~~~   **   during Warmup 0 times;
   *************  **   ~~~   **   during Sizing 0 times.
   *************  **   ~~~   **   Max=-127.668457 C  Min=-127.668457 C
   *************
   *************  ** Warning ** CoolingTower:VariableSpeed "TOWERWATERSYS COOLTOWER 2" - Water flow rate ratio is out of range error continues...
   *************  **   ~~~   **   This error occurred 10413 total times;
   *************  **   ~~~   **   during Warmup 0 times;
   *************  **   ~~~   **   during Sizing 0 times.
   *************  **   ~~~   **   Max=0.637259  Min=0.635953
   *************
   *************  ** Warning ** CHILLER:ELECTRIC:REFORMULATEDEIR "COOLSYS1 CHILLER2": The evap outlet temp range in Cooling Capacity Function of Temp curve error continues.
   *************  **   ~~~   **   This error occurred 7018 total times;
   *************  **   ~~~   **   during Warmup 0 times;
   *************  **   ~~~   **   during Sizing 0 times.
   *************  **   ~~~   **   Max=15.291742  Min=10.283856
   *************
   *************  ** Warning ** CHILLER:ELECTRIC:REFORMULATEDEIR "COOLSYS1 CHILLER2": The evap outlet temp range in Electric Input to Cooling Output Ratio Function of Temp curve error continues.
   *************  **   ~~~   **   This error occurred 7018 total times;
   *************  **   ~~~   **   during Warmup 0 times;
   *************  **   ~~~   **   during Sizing 0 times.
   *************  **   ~~~   **   Max=15.291742  Min=10.283856
   *************
   *************  ** Warning ** CHILLER:ELECTRIC:REFORMULATEDEIR "COOLSYS1 CHILLER2": The cond outlet temp range in Electric Input to Cooling Output Ratio Function of PLR curve error continues.
   *************  **   ~~~   **   This error occurred 63698 total times;
   *************  **   ~~~   **   during Warmup 0 times;
   *************  **   ~~~   **   during Sizing 0 times.
   *************  **   ~~~   **   Max=37.058840  Min=21.518082
   *************
   *************  ** Warning ** CHILLER:ELECTRIC:REFORMULATEDEIR "COOLSYS1 CHILLER2": The part-load ratio range in Electric Input to Cooling Output Ratio Function of PLRatio curve error continues.
   *************  **   ~~~   **   This error occurred 6990 total times;
   *************  **   ~~~   **   during Warmup 0 times;
   *************  **   ~~~   **   during Sizing 0 times.
   *************  **   ~~~   **   Max=0.188440  Min=0.000000
   *************
   *************  ** Warning ** CoolingTower:VariableSpeed "TOWERWATERSYS COOLTOWER 2" - Tower approach temperature is out of range error continues...
   *************  **   ~~~   **   This error occurred 17291 total times;
   *************  **   ~~~   **   during Warmup 0 times;
   *************  **   ~~~   **   during Sizing 0 times.
   *************  **   ~~~   **   Max=1.110806  Min=-9.350954
   *************
   *************  ** Warning ** The range for the cooling tower TOWERWATERSYS COOLTOWER 1 likely exceeds the bounds of the model. The maximum range of the model is used 11.1111
   *************  **   ~~~   **   This error occurred 468 total times;
   *************  **   ~~~   **   during Warmup 0 times;
   *************  **   ~~~   **   during Sizing 0 times.
   *************
   *************  ** Warning ** CoolingTower:VariableSpeed "TOWERWATERSYS COOLTOWER 2" - Tower range temperature is out of range error continues...
   *************  **   ~~~   **   This error occurred 5097 total times;
   *************  **   ~~~   **   during Warmup 0 times;
   *************  **   ~~~   **   during Sizing 0 times.
   *************  **   ~~~   **   Max=15.734580  Min=11.111483
   *************
   *************  ** Warning ** CoolingTower:VariableSpeed "TOWERWATERSYS COOLTOWER 2" - Inlet air wet-bulb temperature is out of range error continues...
   *************  **   ~~~   **   This error occurred 1711 total times;
   *************  **   ~~~   **   during Warmup 0 times;
   *************  **   ~~~   **   during Sizing 0 times.
   *************  **   ~~~   **   Max=30.450954  Min=26.667368
   *************
   *************
   ************* ===== Final Error Summary =====
   ************* The following error categories occurred.  Consider correcting or noting.
   ************* Nominally Unused Constructions
   ************* ..The nominally unused constructions warning is provided to alert you to potential conditions that can cause
   ************* ..extra time during simulation. Each construction is calculated by the algorithm indicated in the HeatBalanceAlgorithm
   ************* ..object. You may remove the constructions indicated (when you use the DisplayExtraWarnings option).
   *************
   ************* EnergyPlus Warmup Error Summary. During Warmup: 0 Warning; 0 Severe Errors.
   ************* EnergyPlus Sizing Error Summary. During Sizing: 30 Warning; 0 Severe Errors.
   ************* EnergyPlus Completed Successfully-- 22578511 Warning; 1 Severe Errors; Elapsed Time=00hr 03min 12.96sec
