Program Version,EnergyPlus, Version 24.2.0-94a887817b, YMD=2025.05.07 11:09
! This file shows details about the branches, nodes, and other
! elements of the flow connections.
! This file is intended for use in "debugging" potential problems
! that may also be detected by the program, but may be more easily
! identified by "eye".
! This file is also intended to support software which draws a
! schematic diagram of the HVAC system.
! ===============================================================
! #Nodes,<Number of Unique Nodes>
 #Nodes,384
! <Node>,<NodeNumber>,<Node Name>,<Node Fluid Type>,<# Times Node Referenced After Definition>
 Node,1,DOAS SYSTEM OTHER SUPPLY OUTLET NODE,Air,10
 Node,2,DOAS SYSTEM OTHER DEMAND INLET NODE,Air,3
 Node,3,BASEMENT TERMINAL OUTLET,Air,3
 Node,4,BASEMENT FOURPIPEFANCOIL HEATING COIL COIL OUTLET NODE,Air,3
 Node,5,BASEMENT FOURPIPEFANCOIL OA MIXER RETURN AIR NODE,Air,3
 Node,6,BASEMENT RETURN AIR INLET,Air,2
 Node,7,DATACENTER_BASEMENT_ZN_6 TERMINAL OUTLET,Air,3
 Node,8,DATACENTER_BASEMENT_ZN_6 FOURPIPEFANCOIL HEATING COIL COIL OUTLET NODE,Air,3
 Node,9,DATACENTER_BASEMENT_ZN_6 FOURPIPEFANCOIL OA MIXER RETURN AIR NODE,Air,3
 Node,10,DATACENTER_BASEMENT_ZN_6 RETURN AIR INLET,Air,2
 Node,11,DOAS SYSTEM BOT SUPPLY OUTLET NODE,Air,10
 Node,12,DOAS SYSTEM BOT DEMAND INLET NODE,Air,3
 Node,13,CORE_BOTTOM TERMINAL OUTLET,Air,3
 Node,14,CORE_BOTTOM FOURPIPEFANCOIL HEATING COIL COIL OUTLET NODE,Air,3
 Node,15,CORE_BOTTOM FOURPIPEFANCOIL OA MIXER RETURN AIR NODE,Air,3
 Node,16,CORE_BOTTOM RETURN AIR INLET,Air,2
 Node,17,PERIMETER_BOT_ZN_3 TERMINAL OUTLET,Air,3
 Node,18,PERIMETER_BOT_ZN_3 FOURPIPEFANCOIL HEATING COIL COIL OUTLET NODE,Air,3
 Node,19,PERIMETER_BOT_ZN_3 FOURPIPEFANCOIL OA MIXER RETURN AIR NODE,Air,3
 Node,20,PERIMETER_BOT_ZN_3 RETURN AIR INLET,Air,2
 Node,21,PERIMETER_BOT_ZN_2 TERMINAL OUTLET,Air,3
 Node,22,PERIMETER_BOT_ZN_2 FOURPIPEFANCOIL HEATING COIL COIL OUTLET NODE,Air,3
 Node,23,PERIMETER_BOT_ZN_2 FOURPIPEFANCOIL OA MIXER RETURN AIR NODE,Air,3
 Node,24,PERIMETER_BOT_ZN_2 RETURN AIR INLET,Air,2
 Node,25,PERIMETER_BOT_ZN_1 TERMINAL OUTLET,Air,3
 Node,26,PERIMETER_BOT_ZN_1 FOURPIPEFANCOIL HEATING COIL COIL OUTLET NODE,Air,3
 Node,27,PERIMETER_BOT_ZN_1 FOURPIPEFANCOIL OA MIXER RETURN AIR NODE,Air,3
 Node,28,PERIMETER_BOT_ZN_1 RETURN AIR INLET,Air,2
 Node,29,PERIMETER_BOT_ZN_4 TERMINAL OUTLET,Air,3
 Node,30,PERIMETER_BOT_ZN_4 FOURPIPEFANCOIL HEATING COIL COIL OUTLET NODE,Air,3
 Node,31,PERIMETER_BOT_ZN_4 FOURPIPEFANCOIL OA MIXER RETURN AIR NODE,Air,3
 Node,32,PERIMETER_BOT_ZN_4 RETURN AIR INLET,Air,2
 Node,33,DATACENTER_BOT_ZN_6 TERMINAL OUTLET,Air,3
 Node,34,DATACENTER_BOT_ZN_6 FOURPIPEFANCOIL HEATING COIL COIL OUTLET NODE,Air,3
 Node,35,DATACENTER_BOT_ZN_6 FOURPIPEFANCOIL OA MIXER RETURN AIR NODE,Air,3
 Node,36,DATACENTER_BOT_ZN_6 RETURN AIR INLET,Air,2
 Node,37,DOAS SYSTEM MID SUPPLY OUTLET NODE,Air,10
 Node,38,DOAS SYSTEM MID DEMAND INLET NODE,Air,3
 Node,39,CORE_MID TERMINAL OUTLET,Air,3
 Node,40,CORE_MID FOURPIPEFANCOIL HEATING COIL COIL OUTLET NODE,Air,3
 Node,41,CORE_MID FOURPIPEFANCOIL OA MIXER RETURN AIR NODE,Air,3
 Node,42,CORE_MID RETURN AIR INLET,Air,2
 Node,43,PERIMETER_MID_ZN_3 TERMINAL OUTLET,Air,3
 Node,44,PERIMETER_MID_ZN_3 FOURPIPEFANCOIL HEATING COIL COIL OUTLET NODE,Air,3
 Node,45,PERIMETER_MID_ZN_3 FOURPIPEFANCOIL OA MIXER RETURN AIR NODE,Air,3
 Node,46,PERIMETER_MID_ZN_3 RETURN AIR INLET,Air,2
 Node,47,PERIMETER_MID_ZN_2 TERMINAL OUTLET,Air,3
 Node,48,PERIMETER_MID_ZN_2 FOURPIPEFANCOIL HEATING COIL COIL OUTLET NODE,Air,3
 Node,49,PERIMETER_MID_ZN_2 FOURPIPEFANCOIL OA MIXER RETURN AIR NODE,Air,3
 Node,50,PERIMETER_MID_ZN_2 RETURN AIR INLET,Air,2
 Node,51,PERIMETER_MID_ZN_1 TERMINAL OUTLET,Air,3
 Node,52,PERIMETER_MID_ZN_1 FOURPIPEFANCOIL HEATING COIL COIL OUTLET NODE,Air,3
 Node,53,PERIMETER_MID_ZN_1 FOURPIPEFANCOIL OA MIXER RETURN AIR NODE,Air,3
 Node,54,PERIMETER_MID_ZN_1 RETURN AIR INLET,Air,2
 Node,55,PERIMETER_MID_ZN_4 TERMINAL OUTLET,Air,3
 Node,56,PERIMETER_MID_ZN_4 FOURPIPEFANCOIL HEATING COIL COIL OUTLET NODE,Air,3
 Node,57,PERIMETER_MID_ZN_4 FOURPIPEFANCOIL OA MIXER RETURN AIR NODE,Air,3
 Node,58,PERIMETER_MID_ZN_4 RETURN AIR INLET,Air,2
 Node,59,DATACENTER_MID_ZN_6 TERMINAL OUTLET,Air,3
 Node,60,DATACENTER_MID_ZN_6 FOURPIPEFANCOIL HEATING COIL COIL OUTLET NODE,Air,3
 Node,61,DATACENTER_MID_ZN_6 FOURPIPEFANCOIL OA MIXER RETURN AIR NODE,Air,3
 Node,62,DATACENTER_MID_ZN_6 RETURN AIR INLET,Air,2
 Node,63,DOAS SYSTEM TOP SUPPLY OUTLET NODE,Air,10
 Node,64,DOAS SYSTEM TOP DEMAND INLET NODE,Air,3
 Node,65,CORE_TOP TERMINAL OUTLET,Air,3
 Node,66,CORE_TOP FOURPIPEFANCOIL HEATING COIL COIL OUTLET NODE,Air,3
 Node,67,CORE_TOP FOURPIPEFANCOIL OA MIXER RETURN AIR NODE,Air,3
 Node,68,CORE_TOP RETURN AIR INLET,Air,2
 Node,69,PERIMETER_TOP_ZN_3 TERMINAL OUTLET,Air,3
 Node,70,PERIMETER_TOP_ZN_3 FOURPIPEFANCOIL HEATING COIL COIL OUTLET NODE,Air,3
 Node,71,PERIMETER_TOP_ZN_3 FOURPIPEFANCOIL OA MIXER RETURN AIR NODE,Air,3
 Node,72,PERIMETER_TOP_ZN_3 RETURN AIR INLET,Air,2
 Node,73,PERIMETER_TOP_ZN_2 TERMINAL OUTLET,Air,3
 Node,74,PERIMETER_TOP_ZN_2 FOURPIPEFANCOIL HEATING COIL COIL OUTLET NODE,Air,3
 Node,75,PERIMETER_TOP_ZN_2 FOURPIPEFANCOIL OA MIXER RETURN AIR NODE,Air,3
 Node,76,PERIMETER_TOP_ZN_2 RETURN AIR INLET,Air,2
 Node,77,PERIMETER_TOP_ZN_1 TERMINAL OUTLET,Air,3
 Node,78,PERIMETER_TOP_ZN_1 FOURPIPEFANCOIL HEATING COIL COIL OUTLET NODE,Air,3
 Node,79,PERIMETER_TOP_ZN_1 FOURPIPEFANCOIL OA MIXER RETURN AIR NODE,Air,3
 Node,80,PERIMETER_TOP_ZN_1 RETURN AIR INLET,Air,2
 Node,81,PERIMETER_TOP_ZN_4 TERMINAL OUTLET,Air,3
 Node,82,PERIMETER_TOP_ZN_4 FOURPIPEFANCOIL HEATING COIL COIL OUTLET NODE,Air,3
 Node,83,PERIMETER_TOP_ZN_4 FOURPIPEFANCOIL OA MIXER RETURN AIR NODE,Air,3
 Node,84,PERIMETER_TOP_ZN_4 RETURN AIR INLET,Air,2
 Node,85,DATACENTER_TOP_ZN_6 TERMINAL OUTLET,Air,3
 Node,86,DATACENTER_TOP_ZN_6 FOURPIPEFANCOIL HEATING COIL COIL OUTLET NODE,Air,3
 Node,87,DATACENTER_TOP_ZN_6 FOURPIPEFANCOIL OA MIXER RETURN AIR NODE,Air,3
 Node,88,DATACENTER_TOP_ZN_6 RETURN AIR INLET,Air,2
 Node,89,DOAS SYSTEM OTHER SUPPLY INLET NODE,Air,3
 Node,90,DOAS SYSTEM OTHER OUTDOOR AIR SYSTEM CONTROLLER MIXED_AIR,Air,5
 Node,91,AHU COOLING COIL OTHER_AIR_OUTLET,Air,6
 Node,92,FAN OTHER AIR INLET,Air,8
 Node,93,DOAS SYSTEM BOT SUPPLY INLET NODE,Air,3
 Node,94,DOAS SYSTEM BOT OUTDOOR AIR SYSTEM CONTROLLER MIXED_AIR,Air,5
 Node,95,AHU COOLING COIL BOT_AIR_OUTLET,Air,6
 Node,96,FAN BOT AIR INLET,Air,8
 Node,97,DOAS SYSTEM MID SUPPLY INLET NODE,Air,3
 Node,98,DOAS SYSTEM MID OUTDOOR AIR SYSTEM CONTROLLER MIXED_AIR,Air,5
 Node,99,AHU COOLING COIL MID_AIR_OUTLET,Air,6
 Node,100,FAN MID AIR INLET,Air,8
 Node,101,DOAS SYSTEM TOP SUPPLY INLET NODE,Air,3
 Node,102,DOAS SYSTEM TOP OUTDOOR AIR SYSTEM CONTROLLER MIXED_AIR,Air,5
 Node,103,AHU COOLING COIL TOP_AIR_OUTLET,Air,6
 Node,104,FAN TOP AIR INLET,Air,8
 Node,105,TEST CHILLED WATER LOOP SUPPLY INLET,Water,2
 Node,106,CHW PUMP_WATER_OUTLET,Water,1
 Node,107,CHILLER 1 CHILLED_WATER_INLET,Water,1
 Node,108,CHILLER 1 CHILLED_WATER_OUTLET,Water,1
 Node,109,TEST CHILLED WATER LOOP SUPPLY OUTLET BRANCH PIPE_INLET,Water,1
 Node,110,TEST CHILLED WATER LOOP SUPPLY OUTLET,Water,4
 Node,111,TEST CHILLED WATER LOOP DEMAND INLET,Water,2
 Node,112,TEST CHILLED WATER LOOP DEMAND INLET BRANCH PIPE_OUTLET,Water,1
 Node,113,AHU COOLING COIL OTHER_WATER_INLET,Water,2
 Node,114,AHU COOLING COIL OTHER_WATER_OUTLET,Water,1
 Node,115,BASEMENT FOURPIPEFANCOIL COOLING COIL_WATER_INLET,Water,1
 Node,116,BASEMENT FOURPIPEFANCOIL COOLING COIL_WATER_OUTLET,Water,1
 Node,117,DATACENTER_BASEMENT_ZN_6 FOURPIPEFANCOIL COOLING COIL_WATER_INLET,Water,1
 Node,118,DATACENTER_BASEMENT_ZN_6 FOURPIPEFANCOIL COOLING COIL_WATER_OUTLET,Water,1
 Node,119,AHU COOLING COIL BOT_WATER_INLET,Water,2
 Node,120,AHU COOLING COIL BOT_WATER_OUTLET,Water,1
 Node,121,CORE_BOTTOM FOURPIPEFANCOIL COOLING COIL_WATER_INLET,Water,1
 Node,122,CORE_BOTTOM FOURPIPEFANCOIL COOLING COIL_WATER_OUTLET,Water,1
 Node,123,PERIMETER_BOT_ZN_3 FOURPIPEFANCOIL COOLING COIL_WATER_INLET,Water,1
 Node,124,PERIMETER_BOT_ZN_3 FOURPIPEFANCOIL COOLING COIL_WATER_OUTLET,Water,1
 Node,125,PERIMETER_BOT_ZN_2 FOURPIPEFANCOIL COOLING COIL_WATER_INLET,Water,1
 Node,126,PERIMETER_BOT_ZN_2 FOURPIPEFANCOIL COOLING COIL_WATER_OUTLET,Water,1
 Node,127,PERIMETER_BOT_ZN_1 FOURPIPEFANCOIL COOLING COIL_WATER_INLET,Water,1
 Node,128,PERIMETER_BOT_ZN_1 FOURPIPEFANCOIL COOLING COIL_WATER_OUTLET,Water,1
 Node,129,PERIMETER_BOT_ZN_4 FOURPIPEFANCOIL COOLING COIL_WATER_INLET,Water,1
 Node,130,PERIMETER_BOT_ZN_4 FOURPIPEFANCOIL COOLING COIL_WATER_OUTLET,Water,1
 Node,131,DATACENTER_BOT_ZN_6 FOURPIPEFANCOIL COOLING COIL_WATER_INLET,Water,1
 Node,132,DATACENTER_BOT_ZN_6 FOURPIPEFANCOIL COOLING COIL_WATER_OUTLET,Water,1
 Node,133,AHU COOLING COIL MID_WATER_INLET,Water,2
 Node,134,AHU COOLING COIL MID_WATER_OUTLET,Water,1
 Node,135,CORE_MID FOURPIPEFANCOIL COOLING COIL_WATER_INLET,Water,1
 Node,136,CORE_MID FOURPIPEFANCOIL COOLING COIL_WATER_OUTLET,Water,1
 Node,137,PERIMETER_MID_ZN_3 FOURPIPEFANCOIL COOLING COIL_WATER_INLET,Water,1
 Node,138,PERIMETER_MID_ZN_3 FOURPIPEFANCOIL COOLING COIL_WATER_OUTLET,Water,1
 Node,139,PERIMETER_MID_ZN_2 FOURPIPEFANCOIL COOLING COIL_WATER_INLET,Water,1
 Node,140,PERIMETER_MID_ZN_2 FOURPIPEFANCOIL COOLING COIL_WATER_OUTLET,Water,1
 Node,141,PERIMETER_MID_ZN_1 FOURPIPEFANCOIL COOLING COIL_WATER_INLET,Water,1
 Node,142,PERIMETER_MID_ZN_1 FOURPIPEFANCOIL COOLING COIL_WATER_OUTLET,Water,1
 Node,143,PERIMETER_MID_ZN_4 FOURPIPEFANCOIL COOLING COIL_WATER_INLET,Water,1
 Node,144,PERIMETER_MID_ZN_4 FOURPIPEFANCOIL COOLING COIL_WATER_OUTLET,Water,1
 Node,145,DATACENTER_MID_ZN_6 FOURPIPEFANCOIL COOLING COIL_WATER_INLET,Water,1
 Node,146,DATACENTER_MID_ZN_6 FOURPIPEFANCOIL COOLING COIL_WATER_OUTLET,Water,1
 Node,147,AHU COOLING COIL TOP_WATER_INLET,Water,2
 Node,148,AHU COOLING COIL TOP_WATER_OUTLET,Water,1
 Node,149,CORE_TOP FOURPIPEFANCOIL COOLING COIL_WATER_INLET,Water,1
 Node,150,CORE_TOP FOURPIPEFANCOIL COOLING COIL_WATER_OUTLET,Water,1
 Node,151,PERIMETER_TOP_ZN_3 FOURPIPEFANCOIL COOLING COIL_WATER_INLET,Water,1
 Node,152,PERIMETER_TOP_ZN_3 FOURPIPEFANCOIL COOLING COIL_WATER_OUTLET,Water,1
 Node,153,PERIMETER_TOP_ZN_2 FOURPIPEFANCOIL COOLING COIL_WATER_INLET,Water,1
 Node,154,PERIMETER_TOP_ZN_2 FOURPIPEFANCOIL COOLING COIL_WATER_OUTLET,Water,1
 Node,155,PERIMETER_TOP_ZN_1 FOURPIPEFANCOIL COOLING COIL_WATER_INLET,Water,1
 Node,156,PERIMETER_TOP_ZN_1 FOURPIPEFANCOIL COOLING COIL_WATER_OUTLET,Water,1
 Node,157,PERIMETER_TOP_ZN_4 FOURPIPEFANCOIL COOLING COIL_WATER_INLET,Water,1
 Node,158,PERIMETER_TOP_ZN_4 FOURPIPEFANCOIL COOLING COIL_WATER_OUTLET,Water,1
 Node,159,DATACENTER_TOP_ZN_6 FOURPIPEFANCOIL COOLING COIL_WATER_INLET,Water,1
 Node,160,DATACENTER_TOP_ZN_6 FOURPIPEFANCOIL COOLING COIL_WATER_OUTLET,Water,1
 Node,161,TEST CHILLED WATER LOOP DEMAND OUTLET BRANCH PIPE_INLET,Water,1
 Node,162,TEST CHILLED WATER LOOP DEMAND OUTLET,Water,2
 Node,163,TEST CONDENSER WATER LOOP SUPPLY INLET,Water,2
 Node,164,CW PUMP_WATER_OUTLET,Water,1
 Node,165,COOLING TOWER 1 WATER_INLET,Water,1
 Node,166,COOLING TOWER 1 WATER_OUTLET,Water,1
 Node,167,TEST CONDENSER WATER LOOP SUPPLY OUTLET BRANCH PIPE_INLET,Water,1
 Node,168,TEST CONDENSER WATER LOOP SUPPLY OUTLET,Water,4
 Node,169,TEST CONDENSER WATER LOOP DEMAND INLET,Water,2
 Node,170,TEST CONDENSER WATER LOOP DEMAND INLET BRANCH PIPE_OUTLET,Water,1
 Node,171,CHILLER 1 CONDENSER_WATER_INLET,Water,1
 Node,172,CHILLER 1 CONDENSER_WATER_OUTLET,Water,1
 Node,173,TEST CONDENSER WATER LOOP DEMAND OUTLET BRANCH PIPE_INLET,Water,1
 Node,174,TEST CONDENSER WATER LOOP DEMAND OUTLET,Water,2
 Node,175,TEST HOT WATER LOOP SUPPLY INLET,Water,2
 Node,176,HW PUMP_WATER_OUTLET,Water,1
 Node,177,DISTRICT HEATING HOT_WATER_INLET,Water,1
 Node,178,DISTRICT HEATING HOT_WATER_OUTLET,Water,1
 Node,179,TEST HOT WATER LOOP SUPPLY OUTLET BRANCH PIPE_INLET,Water,1
 Node,180,TEST HOT WATER LOOP SUPPLY OUTLET,Water,4
 Node,181,TEST HOT WATER LOOP DEMAND INLET,Water,2
 Node,182,TEST HOT WATER LOOP DEMAND INLET BRANCH PIPE_OUTLET,Water,1
 Node,183,AHU HEATING COIL OTHER_WATER_INLET,Water,2
 Node,184,AHU HEATING COIL OTHER_WATER_OUTLET,Water,1
 Node,185,BASEMENT FOURPIPEFANCOIL HEATING COIL_WATER_INLET,Water,1
 Node,186,BASEMENT FOURPIPEFANCOIL HEATING COIL_WATER_OUTLET,Water,1
 Node,187,DATACENTER_BASEMENT_ZN_6 FOURPIPEFANCOIL HEATING COIL_WATER_INLET,Water,1
 Node,188,DATACENTER_BASEMENT_ZN_6 FOURPIPEFANCOIL HEATING COIL_WATER_OUTLET,Water,1
 Node,189,AHU HEATING COIL BOT_WATER_INLET,Water,2
 Node,190,AHU HEATING COIL BOT_WATER_OUTLET,Water,1
 Node,191,CORE_BOTTOM FOURPIPEFANCOIL HEATING COIL_WATER_INLET,Water,1
 Node,192,CORE_BOTTOM FOURPIPEFANCOIL HEATING COIL_WATER_OUTLET,Water,1
 Node,193,PERIMETER_BOT_ZN_3 FOURPIPEFANCOIL HEATING COIL_WATER_INLET,Water,1
 Node,194,PERIMETER_BOT_ZN_3 FOURPIPEFANCOIL HEATING COIL_WATER_OUTLET,Water,1
 Node,195,PERIMETER_BOT_ZN_2 FOURPIPEFANCOIL HEATING COIL_WATER_INLET,Water,1
 Node,196,PERIMETER_BOT_ZN_2 FOURPIPEFANCOIL HEATING COIL_WATER_OUTLET,Water,1
 Node,197,PERIMETER_BOT_ZN_1 FOURPIPEFANCOIL HEATING COIL_WATER_INLET,Water,1
 Node,198,PERIMETER_BOT_ZN_1 FOURPIPEFANCOIL HEATING COIL_WATER_OUTLET,Water,1
 Node,199,PERIMETER_BOT_ZN_4 FOURPIPEFANCOIL HEATING COIL_WATER_INLET,Water,1
 Node,200,PERIMETER_BOT_ZN_4 FOURPIPEFANCOIL HEATING COIL_WATER_OUTLET,Water,1
 Node,201,DATACENTER_BOT_ZN_6 FOURPIPEFANCOIL HEATING COIL_WATER_INLET,Water,1
 Node,202,DATACENTER_BOT_ZN_6 FOURPIPEFANCOIL HEATING COIL_WATER_OUTLET,Water,1
 Node,203,AHU HEATING COIL MID_WATER_INLET,Water,2
 Node,204,AHU HEATING COIL MID_WATER_OUTLET,Water,1
 Node,205,CORE_MID FOURPIPEFANCOIL HEATING COIL_WATER_INLET,Water,1
 Node,206,CORE_MID FOURPIPEFANCOIL HEATING COIL_WATER_OUTLET,Water,1
 Node,207,PERIMETER_MID_ZN_3 FOURPIPEFANCOIL HEATING COIL_WATER_INLET,Water,1
 Node,208,PERIMETER_MID_ZN_3 FOURPIPEFANCOIL HEATING COIL_WATER_OUTLET,Water,1
 Node,209,PERIMETER_MID_ZN_2 FOURPIPEFANCOIL HEATING COIL_WATER_INLET,Water,1
 Node,210,PERIMETER_MID_ZN_2 FOURPIPEFANCOIL HEATING COIL_WATER_OUTLET,Water,1
 Node,211,PERIMETER_MID_ZN_1 FOURPIPEFANCOIL HEATING COIL_WATER_INLET,Water,1
 Node,212,PERIMETER_MID_ZN_1 FOURPIPEFANCOIL HEATING COIL_WATER_OUTLET,Water,1
 Node,213,PERIMETER_MID_ZN_4 FOURPIPEFANCOIL HEATING COIL_WATER_INLET,Water,1
 Node,214,PERIMETER_MID_ZN_4 FOURPIPEFANCOIL HEATING COIL_WATER_OUTLET,Water,1
 Node,215,DATACENTER_MID_ZN_6 FOURPIPEFANCOIL HEATING COIL_WATER_INLET,Water,1
 Node,216,DATACENTER_MID_ZN_6 FOURPIPEFANCOIL HEATING COIL_WATER_OUTLET,Water,1
 Node,217,AHU HEATING COIL TOP_WATER_INLET,Water,2
 Node,218,AHU HEATING COIL TOP_WATER_OUTLET,Water,1
 Node,219,CORE_TOP FOURPIPEFANCOIL HEATING COIL_WATER_INLET,Water,1
 Node,220,CORE_TOP FOURPIPEFANCOIL HEATING COIL_WATER_OUTLET,Water,1
 Node,221,PERIMETER_TOP_ZN_3 FOURPIPEFANCOIL HEATING COIL_WATER_INLET,Water,1
 Node,222,PERIMETER_TOP_ZN_3 FOURPIPEFANCOIL HEATING COIL_WATER_OUTLET,Water,1
 Node,223,PERIMETER_TOP_ZN_2 FOURPIPEFANCOIL HEATING COIL_WATER_INLET,Water,1
 Node,224,PERIMETER_TOP_ZN_2 FOURPIPEFANCOIL HEATING COIL_WATER_OUTLET,Water,1
 Node,225,PERIMETER_TOP_ZN_1 FOURPIPEFANCOIL HEATING COIL_WATER_INLET,Water,1
 Node,226,PERIMETER_TOP_ZN_1 FOURPIPEFANCOIL HEATING COIL_WATER_OUTLET,Water,1
 Node,227,PERIMETER_TOP_ZN_4 FOURPIPEFANCOIL HEATING COIL_WATER_INLET,Water,1
 Node,228,PERIMETER_TOP_ZN_4 FOURPIPEFANCOIL HEATING COIL_WATER_OUTLET,Water,1
 Node,229,DATACENTER_TOP_ZN_6 FOURPIPEFANCOIL HEATING COIL_WATER_INLET,Water,1
 Node,230,DATACENTER_TOP_ZN_6 FOURPIPEFANCOIL HEATING COIL_WATER_OUTLET,Water,1
 Node,231,TEST HOT WATER LOOP DEMAND OUTLET BRANCH PIPE_INLET,Water,1
 Node,232,TEST HOT WATER LOOP DEMAND OUTLET,Water,2
 Node,233,BASEMENT AIR NODE,Air,0
 Node,234,DATACENTER_BASEMENT_ZN_6 AIR NODE,Air,0
 Node,235,CORE_BOTTOM AIR NODE,Air,0
 Node,236,PERIMETER_BOT_ZN_3 AIR NODE,Air,0
 Node,237,PERIMETER_BOT_ZN_2 AIR NODE,Air,0
 Node,238,PERIMETER_BOT_ZN_1 AIR NODE,Air,0
 Node,239,PERIMETER_BOT_ZN_4 AIR NODE,Air,0
 Node,240,DATACENTER_BOT_ZN_6 AIR NODE,Air,0
 Node,241,CORE_MID AIR NODE,Air,0
 Node,242,PERIMETER_MID_ZN_3 AIR NODE,Air,0
 Node,243,PERIMETER_MID_ZN_2 AIR NODE,Air,0
 Node,244,PERIMETER_MID_ZN_1 AIR NODE,Air,0
 Node,245,PERIMETER_MID_ZN_4 AIR NODE,Air,0
 Node,246,DATACENTER_MID_ZN_6 AIR NODE,Air,0
 Node,247,CORE_TOP AIR NODE,Air,0
 Node,248,PERIMETER_TOP_ZN_3 AIR NODE,Air,0
 Node,249,PERIMETER_TOP_ZN_2 AIR NODE,Air,0
 Node,250,PERIMETER_TOP_ZN_1 AIR NODE,Air,0
 Node,251,PERIMETER_TOP_ZN_4 AIR NODE,Air,0
 Node,252,DATACENTER_TOP_ZN_6 AIR NODE,Air,0
 Node,253,DOAS SYSTEM OTHER DEMAND OUTLET NODE,Air,2
 Node,254,DOAS SYSTEM BOT DEMAND OUTLET NODE,Air,2
 Node,255,DOAS SYSTEM MID DEMAND OUTLET NODE,Air,2
 Node,256,DOAS SYSTEM TOP DEMAND OUTLET NODE,Air,2
 Node,257,DOAS SYSTEM OTHER OUTDOOR AIR SYSTEM CONTROLLER OUTDOOR_AIR_INLET,Air,2
 Node,258,BASEMENT FOURPIPEFANCOIL OA MIXER OUTDOOR AIR NODE,Air,1
 Node,259,DATACENTER_BASEMENT_ZN_6 FOURPIPEFANCOIL OA MIXER OUTDOOR AIR NODE,Air,1
 Node,260,DOAS SYSTEM BOT OUTDOOR AIR SYSTEM CONTROLLER OUTDOOR_AIR_INLET,Air,2
 Node,261,CORE_BOTTOM FOURPIPEFANCOIL OA MIXER OUTDOOR AIR NODE,Air,1
 Node,262,PERIMETER_BOT_ZN_3 FOURPIPEFANCOIL OA MIXER OUTDOOR AIR NODE,Air,1
 Node,263,PERIMETER_BOT_ZN_2 FOURPIPEFANCOIL OA MIXER OUTDOOR AIR NODE,Air,1
 Node,264,PERIMETER_BOT_ZN_1 FOURPIPEFANCOIL OA MIXER OUTDOOR AIR NODE,Air,1
 Node,265,PERIMETER_BOT_ZN_4 FOURPIPEFANCOIL OA MIXER OUTDOOR AIR NODE,Air,1
 Node,266,DATACENTER_BOT_ZN_6 FOURPIPEFANCOIL OA MIXER OUTDOOR AIR NODE,Air,1
 Node,267,DOAS SYSTEM MID OUTDOOR AIR SYSTEM CONTROLLER OUTDOOR_AIR_INLET,Air,2
 Node,268,CORE_MID FOURPIPEFANCOIL OA MIXER OUTDOOR AIR NODE,Air,1
 Node,269,PERIMETER_MID_ZN_3 FOURPIPEFANCOIL OA MIXER OUTDOOR AIR NODE,Air,1
 Node,270,PERIMETER_MID_ZN_2 FOURPIPEFANCOIL OA MIXER OUTDOOR AIR NODE,Air,1
 Node,271,PERIMETER_MID_ZN_1 FOURPIPEFANCOIL OA MIXER OUTDOOR AIR NODE,Air,1
 Node,272,PERIMETER_MID_ZN_4 FOURPIPEFANCOIL OA MIXER OUTDOOR AIR NODE,Air,1
 Node,273,DATACENTER_MID_ZN_6 FOURPIPEFANCOIL OA MIXER OUTDOOR AIR NODE,Air,1
 Node,274,DOAS SYSTEM TOP OUTDOOR AIR SYSTEM CONTROLLER OUTDOOR_AIR_INLET,Air,2
 Node,275,CORE_TOP FOURPIPEFANCOIL OA MIXER OUTDOOR AIR NODE,Air,1
 Node,276,PERIMETER_TOP_ZN_3 FOURPIPEFANCOIL OA MIXER OUTDOOR AIR NODE,Air,1
 Node,277,PERIMETER_TOP_ZN_2 FOURPIPEFANCOIL OA MIXER OUTDOOR AIR NODE,Air,1
 Node,278,PERIMETER_TOP_ZN_1 FOURPIPEFANCOIL OA MIXER OUTDOOR AIR NODE,Air,1
 Node,279,PERIMETER_TOP_ZN_4 FOURPIPEFANCOIL OA MIXER OUTDOOR AIR NODE,Air,1
 Node,280,DATACENTER_TOP_ZN_6 FOURPIPEFANCOIL OA MIXER OUTDOOR AIR NODE,Air,1
 Node,281,BASEMENT TERMINAL INLET,Air,1
 Node,282,DATACENTER_BASEMENT_ZN_6 TERMINAL INLET,Air,1
 Node,283,CORE_BOTTOM TERMINAL INLET,Air,1
 Node,284,PERIMETER_BOT_ZN_3 TERMINAL INLET,Air,1
 Node,285,PERIMETER_BOT_ZN_2 TERMINAL INLET,Air,1
 Node,286,PERIMETER_BOT_ZN_1 TERMINAL INLET,Air,1
 Node,287,PERIMETER_BOT_ZN_4 TERMINAL INLET,Air,1
 Node,288,DATACENTER_BOT_ZN_6 TERMINAL INLET,Air,1
 Node,289,CORE_MID TERMINAL INLET,Air,1
 Node,290,PERIMETER_MID_ZN_3 TERMINAL INLET,Air,1
 Node,291,PERIMETER_MID_ZN_2 TERMINAL INLET,Air,1
 Node,292,PERIMETER_MID_ZN_1 TERMINAL INLET,Air,1
 Node,293,PERIMETER_MID_ZN_4 TERMINAL INLET,Air,1
 Node,294,DATACENTER_MID_ZN_6 TERMINAL INLET,Air,1
 Node,295,CORE_TOP TERMINAL INLET,Air,1
 Node,296,PERIMETER_TOP_ZN_3 TERMINAL INLET,Air,1
 Node,297,PERIMETER_TOP_ZN_2 TERMINAL INLET,Air,1
 Node,298,PERIMETER_TOP_ZN_1 TERMINAL INLET,Air,1
 Node,299,PERIMETER_TOP_ZN_4 TERMINAL INLET,Air,1
 Node,300,DATACENTER_TOP_ZN_6 TERMINAL INLET,Air,1
 Node,301,DOAS SYSTEM OTHER OUTDOOR AIR SYSTEM CONTROLLER RELIEF_AIR_OUTLET,Air,1
 Node,302,BASEMENT FOURPIPEFANCOIL OA MIXER MIXED AIR NODE,Air,1
 Node,303,BASEMENT FOURPIPEFANCOIL OA MIXER RELIEF AIR NODE,Air,0
 Node,304,DATACENTER_BASEMENT_ZN_6 FOURPIPEFANCOIL OA MIXER MIXED AIR NODE,Air,1
 Node,305,DATACENTER_BASEMENT_ZN_6 FOURPIPEFANCOIL OA MIXER RELIEF AIR NODE,Air,0
 Node,306,DOAS SYSTEM BOT OUTDOOR AIR SYSTEM CONTROLLER RELIEF_AIR_OUTLET,Air,1
 Node,307,CORE_BOTTOM FOURPIPEFANCOIL OA MIXER MIXED AIR NODE,Air,1
 Node,308,CORE_BOTTOM FOURPIPEFANCOIL OA MIXER RELIEF AIR NODE,Air,0
 Node,309,PERIMETER_BOT_ZN_3 FOURPIPEFANCOIL OA MIXER MIXED AIR NODE,Air,1
 Node,310,PERIMETER_BOT_ZN_3 FOURPIPEFANCOIL OA MIXER RELIEF AIR NODE,Air,0
 Node,311,PERIMETER_BOT_ZN_2 FOURPIPEFANCOIL OA MIXER MIXED AIR NODE,Air,1
 Node,312,PERIMETER_BOT_ZN_2 FOURPIPEFANCOIL OA MIXER RELIEF AIR NODE,Air,0
 Node,313,PERIMETER_BOT_ZN_1 FOURPIPEFANCOIL OA MIXER MIXED AIR NODE,Air,1
 Node,314,PERIMETER_BOT_ZN_1 FOURPIPEFANCOIL OA MIXER RELIEF AIR NODE,Air,0
 Node,315,PERIMETER_BOT_ZN_4 FOURPIPEFANCOIL OA MIXER MIXED AIR NODE,Air,1
 Node,316,PERIMETER_BOT_ZN_4 FOURPIPEFANCOIL OA MIXER RELIEF AIR NODE,Air,0
 Node,317,DATACENTER_BOT_ZN_6 FOURPIPEFANCOIL OA MIXER MIXED AIR NODE,Air,1
 Node,318,DATACENTER_BOT_ZN_6 FOURPIPEFANCOIL OA MIXER RELIEF AIR NODE,Air,0
 Node,319,DOAS SYSTEM MID OUTDOOR AIR SYSTEM CONTROLLER RELIEF_AIR_OUTLET,Air,1
 Node,320,CORE_MID FOURPIPEFANCOIL OA MIXER MIXED AIR NODE,Air,1
 Node,321,CORE_MID FOURPIPEFANCOIL OA MIXER RELIEF AIR NODE,Air,0
 Node,322,PERIMETER_MID_ZN_3 FOURPIPEFANCOIL OA MIXER MIXED AIR NODE,Air,1
 Node,323,PERIMETER_MID_ZN_3 FOURPIPEFANCOIL OA MIXER RELIEF AIR NODE,Air,0
 Node,324,PERIMETER_MID_ZN_2 FOURPIPEFANCOIL OA MIXER MIXED AIR NODE,Air,1
 Node,325,PERIMETER_MID_ZN_2 FOURPIPEFANCOIL OA MIXER RELIEF AIR NODE,Air,0
 Node,326,PERIMETER_MID_ZN_1 FOURPIPEFANCOIL OA MIXER MIXED AIR NODE,Air,1
 Node,327,PERIMETER_MID_ZN_1 FOURPIPEFANCOIL OA MIXER RELIEF AIR NODE,Air,0
 Node,328,PERIMETER_MID_ZN_4 FOURPIPEFANCOIL OA MIXER MIXED AIR NODE,Air,1
 Node,329,PERIMETER_MID_ZN_4 FOURPIPEFANCOIL OA MIXER RELIEF AIR NODE,Air,0
 Node,330,DATACENTER_MID_ZN_6 FOURPIPEFANCOIL OA MIXER MIXED AIR NODE,Air,1
 Node,331,DATACENTER_MID_ZN_6 FOURPIPEFANCOIL OA MIXER RELIEF AIR NODE,Air,0
 Node,332,DOAS SYSTEM TOP OUTDOOR AIR SYSTEM CONTROLLER RELIEF_AIR_OUTLET,Air,1
 Node,333,CORE_TOP FOURPIPEFANCOIL OA MIXER MIXED AIR NODE,Air,1
 Node,334,CORE_TOP FOURPIPEFANCOIL OA MIXER RELIEF AIR NODE,Air,0
 Node,335,PERIMETER_TOP_ZN_3 FOURPIPEFANCOIL OA MIXER MIXED AIR NODE,Air,1
 Node,336,PERIMETER_TOP_ZN_3 FOURPIPEFANCOIL OA MIXER RELIEF AIR NODE,Air,0
 Node,337,PERIMETER_TOP_ZN_2 FOURPIPEFANCOIL OA MIXER MIXED AIR NODE,Air,1
 Node,338,PERIMETER_TOP_ZN_2 FOURPIPEFANCOIL OA MIXER RELIEF AIR NODE,Air,0
 Node,339,PERIMETER_TOP_ZN_1 FOURPIPEFANCOIL OA MIXER MIXED AIR NODE,Air,1
 Node,340,PERIMETER_TOP_ZN_1 FOURPIPEFANCOIL OA MIXER RELIEF AIR NODE,Air,0
 Node,341,PERIMETER_TOP_ZN_4 FOURPIPEFANCOIL OA MIXER MIXED AIR NODE,Air,1
 Node,342,PERIMETER_TOP_ZN_4 FOURPIPEFANCOIL OA MIXER RELIEF AIR NODE,Air,0
 Node,343,DATACENTER_TOP_ZN_6 FOURPIPEFANCOIL OA MIXER MIXED AIR NODE,Air,1
 Node,344,DATACENTER_TOP_ZN_6 FOURPIPEFANCOIL OA MIXER RELIEF AIR NODE,Air,0
 Node,345,BASEMENT FOURPIPEFANCOIL COOLING COIL COIL OUTLET NODE,Air,1
 Node,346,DATACENTER_BASEMENT_ZN_6 FOURPIPEFANCOIL COOLING COIL COIL OUTLET NODE,Air,1
 Node,347,CORE_BOTTOM FOURPIPEFANCOIL COOLING COIL COIL OUTLET NODE,Air,1
 Node,348,PERIMETER_BOT_ZN_3 FOURPIPEFANCOIL COOLING COIL COIL OUTLET NODE,Air,1
 Node,349,PERIMETER_BOT_ZN_2 FOURPIPEFANCOIL COOLING COIL COIL OUTLET NODE,Air,1
 Node,350,PERIMETER_BOT_ZN_1 FOURPIPEFANCOIL COOLING COIL COIL OUTLET NODE,Air,1
 Node,351,PERIMETER_BOT_ZN_4 FOURPIPEFANCOIL COOLING COIL COIL OUTLET NODE,Air,1
 Node,352,DATACENTER_BOT_ZN_6 FOURPIPEFANCOIL COOLING COIL COIL OUTLET NODE,Air,1
 Node,353,CORE_MID FOURPIPEFANCOIL COOLING COIL COIL OUTLET NODE,Air,1
 Node,354,PERIMETER_MID_ZN_3 FOURPIPEFANCOIL COOLING COIL COIL OUTLET NODE,Air,1
 Node,355,PERIMETER_MID_ZN_2 FOURPIPEFANCOIL COOLING COIL COIL OUTLET NODE,Air,1
 Node,356,PERIMETER_MID_ZN_1 FOURPIPEFANCOIL COOLING COIL COIL OUTLET NODE,Air,1
 Node,357,PERIMETER_MID_ZN_4 FOURPIPEFANCOIL COOLING COIL COIL OUTLET NODE,Air,1
 Node,358,DATACENTER_MID_ZN_6 FOURPIPEFANCOIL COOLING COIL COIL OUTLET NODE,Air,1
 Node,359,CORE_TOP FOURPIPEFANCOIL COOLING COIL COIL OUTLET NODE,Air,1
 Node,360,PERIMETER_TOP_ZN_3 FOURPIPEFANCOIL COOLING COIL COIL OUTLET NODE,Air,1
 Node,361,PERIMETER_TOP_ZN_2 FOURPIPEFANCOIL COOLING COIL COIL OUTLET NODE,Air,1
 Node,362,PERIMETER_TOP_ZN_1 FOURPIPEFANCOIL COOLING COIL COIL OUTLET NODE,Air,1
 Node,363,PERIMETER_TOP_ZN_4 FOURPIPEFANCOIL COOLING COIL COIL OUTLET NODE,Air,1
 Node,364,DATACENTER_TOP_ZN_6 FOURPIPEFANCOIL COOLING COIL COIL OUTLET NODE,Air,1
 Node,365,BASEMENT FOURPIPEFANCOIL CONST SPEED FAN FAN OUTLET NODE,Air,1
 Node,366,DATACENTER_BASEMENT_ZN_6 FOURPIPEFANCOIL CONST SPEED FAN FAN OUTLET NODE,Air,1
 Node,367,CORE_BOTTOM FOURPIPEFANCOIL CONST SPEED FAN FAN OUTLET NODE,Air,1
 Node,368,PERIMETER_BOT_ZN_3 FOURPIPEFANCOIL CONST SPEED FAN FAN OUTLET NODE,Air,1
 Node,369,PERIMETER_BOT_ZN_2 FOURPIPEFANCOIL CONST SPEED FAN FAN OUTLET NODE,Air,1
 Node,370,PERIMETER_BOT_ZN_1 FOURPIPEFANCOIL CONST SPEED FAN FAN OUTLET NODE,Air,1
 Node,371,PERIMETER_BOT_ZN_4 FOURPIPEFANCOIL CONST SPEED FAN FAN OUTLET NODE,Air,1
 Node,372,DATACENTER_BOT_ZN_6 FOURPIPEFANCOIL CONST SPEED FAN FAN OUTLET NODE,Air,1
 Node,373,CORE_MID FOURPIPEFANCOIL CONST SPEED FAN FAN OUTLET NODE,Air,1
 Node,374,PERIMETER_MID_ZN_3 FOURPIPEFANCOIL CONST SPEED FAN FAN OUTLET NODE,Air,1
 Node,375,PERIMETER_MID_ZN_2 FOURPIPEFANCOIL CONST SPEED FAN FAN OUTLET NODE,Air,1
 Node,376,PERIMETER_MID_ZN_1 FOURPIPEFANCOIL CONST SPEED FAN FAN OUTLET NODE,Air,1
 Node,377,PERIMETER_MID_ZN_4 FOURPIPEFANCOIL CONST SPEED FAN FAN OUTLET NODE,Air,1
 Node,378,DATACENTER_MID_ZN_6 FOURPIPEFANCOIL CONST SPEED FAN FAN OUTLET NODE,Air,1
 Node,379,CORE_TOP FOURPIPEFANCOIL CONST SPEED FAN FAN OUTLET NODE,Air,1
 Node,380,PERIMETER_TOP_ZN_3 FOURPIPEFANCOIL CONST SPEED FAN FAN OUTLET NODE,Air,1
 Node,381,PERIMETER_TOP_ZN_2 FOURPIPEFANCOIL CONST SPEED FAN FAN OUTLET NODE,Air,1
 Node,382,PERIMETER_TOP_ZN_1 FOURPIPEFANCOIL CONST SPEED FAN FAN OUTLET NODE,Air,1
 Node,383,PERIMETER_TOP_ZN_4 FOURPIPEFANCOIL CONST SPEED FAN FAN OUTLET NODE,Air,1
 Node,384,DATACENTER_TOP_ZN_6 FOURPIPEFANCOIL CONST SPEED FAN FAN OUTLET NODE,Air,1
! ===============================================================
! Suspicious nodes have 0 references.  It is normal for some nodes, however.
! Listing nodes with 0 references (culled from previous list):
! <Suspicious Node>,<NodeNumber>,<Node Name>,<Node Fluid Type>,<# Times Node Referenced After Definition>
 Suspicious Node,233,BASEMENT AIR NODE,Air,0
 Suspicious Node,234,DATACENTER_BASEMENT_ZN_6 AIR NODE,Air,0
 Suspicious Node,235,CORE_BOTTOM AIR NODE,Air,0
 Suspicious Node,236,PERIMETER_BOT_ZN_3 AIR NODE,Air,0
 Suspicious Node,237,PERIMETER_BOT_ZN_2 AIR NODE,Air,0
 Suspicious Node,238,PERIMETER_BOT_ZN_1 AIR NODE,Air,0
 Suspicious Node,239,PERIMETER_BOT_ZN_4 AIR NODE,Air,0
 Suspicious Node,240,DATACENTER_BOT_ZN_6 AIR NODE,Air,0
 Suspicious Node,241,CORE_MID AIR NODE,Air,0
 Suspicious Node,242,PERIMETER_MID_ZN_3 AIR NODE,Air,0
 Suspicious Node,243,PERIMETER_MID_ZN_2 AIR NODE,Air,0
 Suspicious Node,244,PERIMETER_MID_ZN_1 AIR NODE,Air,0
 Suspicious Node,245,PERIMETER_MID_ZN_4 AIR NODE,Air,0
 Suspicious Node,246,DATACENTER_MID_ZN_6 AIR NODE,Air,0
 Suspicious Node,247,CORE_TOP AIR NODE,Air,0
 Suspicious Node,248,PERIMETER_TOP_ZN_3 AIR NODE,Air,0
 Suspicious Node,249,PERIMETER_TOP_ZN_2 AIR NODE,Air,0
 Suspicious Node,250,PERIMETER_TOP_ZN_1 AIR NODE,Air,0
 Suspicious Node,251,PERIMETER_TOP_ZN_4 AIR NODE,Air,0
 Suspicious Node,252,DATACENTER_TOP_ZN_6 AIR NODE,Air,0
 Suspicious Node,303,BASEMENT FOURPIPEFANCOIL OA MIXER RELIEF AIR NODE,Air,0
 Suspicious Node,305,DATACENTER_BASEMENT_ZN_6 FOURPIPEFANCOIL OA MIXER RELIEF AIR NODE,Air,0
 Suspicious Node,308,CORE_BOTTOM FOURPIPEFANCOIL OA MIXER RELIEF AIR NODE,Air,0
 Suspicious Node,310,PERIMETER_BOT_ZN_3 FOURPIPEFANCOIL OA MIXER RELIEF AIR NODE,Air,0
 Suspicious Node,312,PERIMETER_BOT_ZN_2 FOURPIPEFANCOIL OA MIXER RELIEF AIR NODE,Air,0
 Suspicious Node,314,PERIMETER_BOT_ZN_1 FOURPIPEFANCOIL OA MIXER RELIEF AIR NODE,Air,0
 Suspicious Node,316,PERIMETER_BOT_ZN_4 FOURPIPEFANCOIL OA MIXER RELIEF AIR NODE,Air,0
 Suspicious Node,318,DATACENTER_BOT_ZN_6 FOURPIPEFANCOIL OA MIXER RELIEF AIR NODE,Air,0
 Suspicious Node,321,CORE_MID FOURPIPEFANCOIL OA MIXER RELIEF AIR NODE,Air,0
 Suspicious Node,323,PERIMETER_MID_ZN_3 FOURPIPEFANCOIL OA MIXER RELIEF AIR NODE,Air,0
 Suspicious Node,325,PERIMETER_MID_ZN_2 FOURPIPEFANCOIL OA MIXER RELIEF AIR NODE,Air,0
 Suspicious Node,327,PERIMETER_MID_ZN_1 FOURPIPEFANCOIL OA MIXER RELIEF AIR NODE,Air,0
 Suspicious Node,329,PERIMETER_MID_ZN_4 FOURPIPEFANCOIL OA MIXER RELIEF AIR NODE,Air,0
 Suspicious Node,331,DATACENTER_MID_ZN_6 FOURPIPEFANCOIL OA MIXER RELIEF AIR NODE,Air,0
 Suspicious Node,334,CORE_TOP FOURPIPEFANCOIL OA MIXER RELIEF AIR NODE,Air,0
 Suspicious Node,336,PERIMETER_TOP_ZN_3 FOURPIPEFANCOIL OA MIXER RELIEF AIR NODE,Air,0
 Suspicious Node,338,PERIMETER_TOP_ZN_2 FOURPIPEFANCOIL OA MIXER RELIEF AIR NODE,Air,0
 Suspicious Node,340,PERIMETER_TOP_ZN_1 FOURPIPEFANCOIL OA MIXER RELIEF AIR NODE,Air,0
 Suspicious Node,342,PERIMETER_TOP_ZN_4 FOURPIPEFANCOIL OA MIXER RELIEF AIR NODE,Air,0
 Suspicious Node,344,DATACENTER_TOP_ZN_6 FOURPIPEFANCOIL OA MIXER RELIEF AIR NODE,Air,0
! ===============================================================
! <#Branch Lists>,<Number of Branch Lists>
 #Branch Lists,10
! <Branch List>,<Branch List Count>,<Branch List Name>,<Loop Name>,<Loop Type>,<Number of Branches>
! <Branch>,<Branch Count>,<Branch Name>,<Loop Name>,<Loop Type>,<Branch Inlet Node Name>,<Branch Outlet Node Name>
 Branch List,1,DOAS SYSTEM OTHER BRANCHES,DOAS SYSTEM OTHER,Air,1
   Branch,1,DOAS SYSTEM OTHER MAIN BRANCH,DOAS SYSTEM OTHER,Air,DOAS SYSTEM OTHER SUPPLY INLET NODE,DOAS SYSTEM OTHER SUPPLY OUTLET NODE
 Branch List,2,DOAS SYSTEM BOT BRANCHES,DOAS SYSTEM BOT,Air,1
   Branch,1,DOAS SYSTEM BOT MAIN BRANCH,DOAS SYSTEM BOT,Air,DOAS SYSTEM BOT SUPPLY INLET NODE,DOAS SYSTEM BOT SUPPLY OUTLET NODE
 Branch List,3,DOAS SYSTEM MID BRANCHES,DOAS SYSTEM MID,Air,1
   Branch,1,DOAS SYSTEM MID MAIN BRANCH,DOAS SYSTEM MID,Air,DOAS SYSTEM MID SUPPLY INLET NODE,DOAS SYSTEM MID SUPPLY OUTLET NODE
 Branch List,4,DOAS SYSTEM TOP BRANCHES,DOAS SYSTEM TOP,Air,1
   Branch,1,DOAS SYSTEM TOP MAIN BRANCH,DOAS SYSTEM TOP,Air,DOAS SYSTEM TOP SUPPLY INLET NODE,DOAS SYSTEM TOP SUPPLY OUTLET NODE
 Branch List,5,TEST CHILLED WATER LOOP SUPPLY BRANCHS,TEST CHILLED WATER LOOP,Plant Supply,3
   Branch,1,TEST CHILLED WATER LOOP SUPPLY INLET BRANCH,TEST CHILLED WATER LOOP,Plant Supply,TEST CHILLED WATER LOOP SUPPLY INLET,CHW PUMP_WATER_OUTLET
   Branch,2,TEST CHILLED WATER LOOP SUPPLY BRANCH 1,TEST CHILLED WATER LOOP,Plant Supply,CHILLER 1 CHILLED_WATER_INLET,CHILLER 1 CHILLED_WATER_OUTLET
   Branch,3,TEST CHILLED WATER LOOP SUPPLY OUTLET BRANCH,TEST CHILLED WATER LOOP,Plant Supply,TEST CHILLED WATER LOOP SUPPLY OUTLET BRANCH PIPE_INLET,TEST CHILLED WATER LOOP SUPPLY OUTLET
 Branch List,6,TEST CHILLED WATER LOOP DEMAND BRANCHS,TEST CHILLED WATER LOOP,Plant Demand,26
   Branch,1,TEST CHILLED WATER LOOP DEMAND INLET BRANCH,TEST CHILLED WATER LOOP,Plant Demand,TEST CHILLED WATER LOOP DEMAND INLET,TEST CHILLED WATER LOOP DEMAND INLET BRANCH PIPE_OUTLET
   Branch,2,TEST CHILLED WATER LOOP DEMAND BRANCH 1,TEST CHILLED WATER LOOP,Plant Demand,AHU COOLING COIL OTHER_WATER_INLET,AHU COOLING COIL OTHER_WATER_OUTLET
   Branch,3,TEST CHILLED WATER LOOP DEMAND BRANCH 2,TEST CHILLED WATER LOOP,Plant Demand,BASEMENT FOURPIPEFANCOIL COOLING COIL_WATER_INLET,BASEMENT FOURPIPEFANCOIL COOLING COIL_WATER_OUTLET
   Branch,4,TEST CHILLED WATER LOOP DEMAND BRANCH 3,TEST CHILLED WATER LOOP,Plant Demand,DATACENTER_BASEMENT_ZN_6 FOURPIPEFANCOIL COOLING COIL_WATER_INLET,DATACENTER_BASEMENT_ZN_6 FOURPIPEFANCOIL COOLING COIL_WATER_OUTLET
   Branch,5,TEST CHILLED WATER LOOP DEMAND BRANCH 4,TEST CHILLED WATER LOOP,Plant Demand,AHU COOLING COIL BOT_WATER_INLET,AHU COOLING COIL BOT_WATER_OUTLET
   Branch,6,TEST CHILLED WATER LOOP DEMAND BRANCH 5,TEST CHILLED WATER LOOP,Plant Demand,CORE_BOTTOM FOURPIPEFANCOIL COOLING COIL_WATER_INLET,CORE_BOTTOM FOURPIPEFANCOIL COOLING COIL_WATER_OUTLET
   Branch,7,TEST CHILLED WATER LOOP DEMAND BRANCH 6,TEST CHILLED WATER LOOP,Plant Demand,PERIMETER_BOT_ZN_3 FOURPIPEFANCOIL COOLING COIL_WATER_INLET,PERIMETER_BOT_ZN_3 FOURPIPEFANCOIL COOLING COIL_WATER_OUTLET
   Branch,8,TEST CHILLED WATER LOOP DEMAND BRANCH 7,TEST CHILLED WATER LOOP,Plant Demand,PERIMETER_BOT_ZN_2 FOURPIPEFANCOIL COOLING COIL_WATER_INLET,PERIMETER_BOT_ZN_2 FOURPIPEFANCOIL COOLING COIL_WATER_OUTLET
   Branch,9,TEST CHILLED WATER LOOP DEMAND BRANCH 8,TEST CHILLED WATER LOOP,Plant Demand,PERIMETER_BOT_ZN_1 FOURPIPEFANCOIL COOLING COIL_WATER_INLET,PERIMETER_BOT_ZN_1 FOURPIPEFANCOIL COOLING COIL_WATER_OUTLET
   Branch,10,TEST CHILLED WATER LOOP DEMAND BRANCH 9,TEST CHILLED WATER LOOP,Plant Demand,PERIMETER_BOT_ZN_4 FOURPIPEFANCOIL COOLING COIL_WATER_INLET,PERIMETER_BOT_ZN_4 FOURPIPEFANCOIL COOLING COIL_WATER_OUTLET
   Branch,11,TEST CHILLED WATER LOOP DEMAND BRANCH 10,TEST CHILLED WATER LOOP,Plant Demand,DATACENTER_BOT_ZN_6 FOURPIPEFANCOIL COOLING COIL_WATER_INLET,DATACENTER_BOT_ZN_6 FOURPIPEFANCOIL COOLING COIL_WATER_OUTLET
   Branch,12,TEST CHILLED WATER LOOP DEMAND BRANCH 11,TEST CHILLED WATER LOOP,Plant Demand,AHU COOLING COIL MID_WATER_INLET,AHU COOLING COIL MID_WATER_OUTLET
   Branch,13,TEST CHILLED WATER LOOP DEMAND BRANCH 12,TEST CHILLED WATER LOOP,Plant Demand,CORE_MID FOURPIPEFANCOIL COOLING COIL_WATER_INLET,CORE_MID FOURPIPEFANCOIL COOLING COIL_WATER_OUTLET
   Branch,14,TEST CHILLED WATER LOOP DEMAND BRANCH 13,TEST CHILLED WATER LOOP,Plant Demand,PERIMETER_MID_ZN_3 FOURPIPEFANCOIL COOLING COIL_WATER_INLET,PERIMETER_MID_ZN_3 FOURPIPEFANCOIL COOLING COIL_WATER_OUTLET
   Branch,15,TEST CHILLED WATER LOOP DEMAND BRANCH 14,TEST CHILLED WATER LOOP,Plant Demand,PERIMETER_MID_ZN_2 FOURPIPEFANCOIL COOLING COIL_WATER_INLET,PERIMETER_MID_ZN_2 FOURPIPEFANCOIL COOLING COIL_WATER_OUTLET
   Branch,16,TEST CHILLED WATER LOOP DEMAND BRANCH 15,TEST CHILLED WATER LOOP,Plant Demand,PERIMETER_MID_ZN_1 FOURPIPEFANCOIL COOLING COIL_WATER_INLET,PERIMETER_MID_ZN_1 FOURPIPEFANCOIL COOLING COIL_WATER_OUTLET
   Branch,17,TEST CHILLED WATER LOOP DEMAND BRANCH 16,TEST CHILLED WATER LOOP,Plant Demand,PERIMETER_MID_ZN_4 FOURPIPEFANCOIL COOLING COIL_WATER_INLET,PERIMETER_MID_ZN_4 FOURPIPEFANCOIL COOLING COIL_WATER_OUTLET
   Branch,18,TEST CHILLED WATER LOOP DEMAND BRANCH 17,TEST CHILLED WATER LOOP,Plant Demand,DATACENTER_MID_ZN_6 FOURPIPEFANCOIL COOLING COIL_WATER_INLET,DATACENTER_MID_ZN_6 FOURPIPEFANCOIL COOLING COIL_WATER_OUTLET
   Branch,19,TEST CHILLED WATER LOOP DEMAND BRANCH 18,TEST CHILLED WATER LOOP,Plant Demand,AHU COOLING COIL TOP_WATER_INLET,AHU COOLING COIL TOP_WATER_OUTLET
   Branch,20,TEST CHILLED WATER LOOP DEMAND BRANCH 19,TEST CHILLED WATER LOOP,Plant Demand,CORE_TOP FOURPIPEFANCOIL COOLING COIL_WATER_INLET,CORE_TOP FOURPIPEFANCOIL COOLING COIL_WATER_OUTLET
   Branch,21,TEST CHILLED WATER LOOP DEMAND BRANCH 20,TEST CHILLED WATER LOOP,Plant Demand,PERIMETER_TOP_ZN_3 FOURPIPEFANCOIL COOLING COIL_WATER_INLET,PERIMETER_TOP_ZN_3 FOURPIPEFANCOIL COOLING COIL_WATER_OUTLET
   Branch,22,TEST CHILLED WATER LOOP DEMAND BRANCH 21,TEST CHILLED WATER LOOP,Plant Demand,PERIMETER_TOP_ZN_2 FOURPIPEFANCOIL COOLING COIL_WATER_INLET,PERIMETER_TOP_ZN_2 FOURPIPEFANCOIL COOLING COIL_WATER_OUTLET
   Branch,23,TEST CHILLED WATER LOOP DEMAND BRANCH 22,TEST CHILLED WATER LOOP,Plant Demand,PERIMETER_TOP_ZN_1 FOURPIPEFANCOIL COOLING COIL_WATER_INLET,PERIMETER_TOP_ZN_1 FOURPIPEFANCOIL COOLING COIL_WATER_OUTLET
   Branch,24,TEST CHILLED WATER LOOP DEMAND BRANCH 23,TEST CHILLED WATER LOOP,Plant Demand,PERIMETER_TOP_ZN_4 FOURPIPEFANCOIL COOLING COIL_WATER_INLET,PERIMETER_TOP_ZN_4 FOURPIPEFANCOIL COOLING COIL_WATER_OUTLET
   Branch,25,TEST CHILLED WATER LOOP DEMAND BRANCH 24,TEST CHILLED WATER LOOP,Plant Demand,DATACENTER_TOP_ZN_6 FOURPIPEFANCOIL COOLING COIL_WATER_INLET,DATACENTER_TOP_ZN_6 FOURPIPEFANCOIL COOLING COIL_WATER_OUTLET
   Branch,26,TEST CHILLED WATER LOOP DEMAND OUTLET BRANCH,TEST CHILLED WATER LOOP,Plant Demand,TEST CHILLED WATER LOOP DEMAND OUTLET BRANCH PIPE_INLET,TEST CHILLED WATER LOOP DEMAND OUTLET
 Branch List,7,TEST CONDENSER WATER LOOP SUPPLY BRANCHS,TEST CONDENSER WATER LOOP,Plant Supply,3
   Branch,1,TEST CONDENSER WATER LOOP SUPPLY INLET BRANCH,TEST CONDENSER WATER LOOP,Plant Supply,TEST CONDENSER WATER LOOP SUPPLY INLET,CW PUMP_WATER_OUTLET
   Branch,2,TEST CONDENSER WATER LOOP SUPPLY BRANCH 1,TEST CONDENSER WATER LOOP,Plant Supply,COOLING TOWER 1 WATER_INLET,COOLING TOWER 1 WATER_OUTLET
   Branch,3,TEST CONDENSER WATER LOOP SUPPLY OUTLET BRANCH,TEST CONDENSER WATER LOOP,Plant Supply,TEST CONDENSER WATER LOOP SUPPLY OUTLET BRANCH PIPE_INLET,TEST CONDENSER WATER LOOP SUPPLY OUTLET
 Branch List,8,TEST CONDENSER WATER LOOP DEMAND BRANCHS,TEST CONDENSER WATER LOOP,Plant Demand,3
   Branch,1,TEST CONDENSER WATER LOOP DEMAND INLET BRANCH,TEST CONDENSER WATER LOOP,Plant Demand,TEST CONDENSER WATER LOOP DEMAND INLET,TEST CONDENSER WATER LOOP DEMAND INLET BRANCH PIPE_OUTLET
   Branch,2,TEST CONDENSER WATER LOOP DEMAND BRANCH 1,TEST CONDENSER WATER LOOP,Plant Demand,CHILLER 1 CONDENSER_WATER_INLET,CHILLER 1 CONDENSER_WATER_OUTLET
   Branch,3,TEST CONDENSER WATER LOOP DEMAND OUTLET BRANCH,TEST CONDENSER WATER LOOP,Plant Demand,TEST CONDENSER WATER LOOP DEMAND OUTLET BRANCH PIPE_INLET,TEST CONDENSER WATER LOOP DEMAND OUTLET
 Branch List,9,TEST HOT WATER LOOP SUPPLY BRANCHS,TEST HOT WATER LOOP,Plant Supply,3
   Branch,1,TEST HOT WATER LOOP SUPPLY INLET BRANCH,TEST HOT WATER LOOP,Plant Supply,TEST HOT WATER LOOP SUPPLY INLET,HW PUMP_WATER_OUTLET
   Branch,2,TEST HOT WATER LOOP SUPPLY BRANCH 1,TEST HOT WATER LOOP,Plant Supply,DISTRICT HEATING HOT_WATER_INLET,DISTRICT HEATING HOT_WATER_OUTLET
   Branch,3,TEST HOT WATER LOOP SUPPLY OUTLET BRANCH,TEST HOT WATER LOOP,Plant Supply,TEST HOT WATER LOOP SUPPLY OUTLET BRANCH PIPE_INLET,TEST HOT WATER LOOP SUPPLY OUTLET
 Branch List,10,TEST HOT WATER LOOP DEMAND BRANCHS,TEST HOT WATER LOOP,Plant Demand,26
   Branch,1,TEST HOT WATER LOOP DEMAND INLET BRANCH,TEST HOT WATER LOOP,Plant Demand,TEST HOT WATER LOOP DEMAND INLET,TEST HOT WATER LOOP DEMAND INLET BRANCH PIPE_OUTLET
   Branch,2,TEST HOT WATER LOOP DEMAND BRANCH 1,TEST HOT WATER LOOP,Plant Demand,AHU HEATING COIL OTHER_WATER_INLET,AHU HEATING COIL OTHER_WATER_OUTLET
   Branch,3,TEST HOT WATER LOOP DEMAND BRANCH 2,TEST HOT WATER LOOP,Plant Demand,BASEMENT FOURPIPEFANCOIL HEATING COIL_WATER_INLET,BASEMENT FOURPIPEFANCOIL HEATING COIL_WATER_OUTLET
   Branch,4,TEST HOT WATER LOOP DEMAND BRANCH 3,TEST HOT WATER LOOP,Plant Demand,DATACENTER_BASEMENT_ZN_6 FOURPIPEFANCOIL HEATING COIL_WATER_INLET,DATACENTER_BASEMENT_ZN_6 FOURPIPEFANCOIL HEATING COIL_WATER_OUTLET
   Branch,5,TEST HOT WATER LOOP DEMAND BRANCH 4,TEST HOT WATER LOOP,Plant Demand,AHU HEATING COIL BOT_WATER_INLET,AHU HEATING COIL BOT_WATER_OUTLET
   Branch,6,TEST HOT WATER LOOP DEMAND BRANCH 5,TEST HOT WATER LOOP,Plant Demand,CORE_BOTTOM FOURPIPEFANCOIL HEATING COIL_WATER_INLET,CORE_BOTTOM FOURPIPEFANCOIL HEATING COIL_WATER_OUTLET
   Branch,7,TEST HOT WATER LOOP DEMAND BRANCH 6,TEST HOT WATER LOOP,Plant Demand,PERIMETER_BOT_ZN_3 FOURPIPEFANCOIL HEATING COIL_WATER_INLET,PERIMETER_BOT_ZN_3 FOURPIPEFANCOIL HEATING COIL_WATER_OUTLET
   Branch,8,TEST HOT WATER LOOP DEMAND BRANCH 7,TEST HOT WATER LOOP,Plant Demand,PERIMETER_BOT_ZN_2 FOURPIPEFANCOIL HEATING COIL_WATER_INLET,PERIMETER_BOT_ZN_2 FOURPIPEFANCOIL HEATING COIL_WATER_OUTLET
   Branch,9,TEST HOT WATER LOOP DEMAND BRANCH 8,TEST HOT WATER LOOP,Plant Demand,PERIMETER_BOT_ZN_1 FOURPIPEFANCOIL HEATING COIL_WATER_INLET,PERIMETER_BOT_ZN_1 FOURPIPEFANCOIL HEATING COIL_WATER_OUTLET
   Branch,10,TEST HOT WATER LOOP DEMAND BRANCH 9,TEST HOT WATER LOOP,Plant Demand,PERIMETER_BOT_ZN_4 FOURPIPEFANCOIL HEATING COIL_WATER_INLET,PERIMETER_BOT_ZN_4 FOURPIPEFANCOIL HEATING COIL_WATER_OUTLET
   Branch,11,TEST HOT WATER LOOP DEMAND BRANCH 10,TEST HOT WATER LOOP,Plant Demand,DATACENTER_BOT_ZN_6 FOURPIPEFANCOIL HEATING COIL_WATER_INLET,DATACENTER_BOT_ZN_6 FOURPIPEFANCOIL HEATING COIL_WATER_OUTLET
   Branch,12,TEST HOT WATER LOOP DEMAND BRANCH 11,TEST HOT WATER LOOP,Plant Demand,AHU HEATING COIL MID_WATER_INLET,AHU HEATING COIL MID_WATER_OUTLET
   Branch,13,TEST HOT WATER LOOP DEMAND BRANCH 12,TEST HOT WATER LOOP,Plant Demand,CORE_MID FOURPIPEFANCOIL HEATING COIL_WATER_INLET,CORE_MID FOURPIPEFANCOIL HEATING COIL_WATER_OUTLET
   Branch,14,TEST HOT WATER LOOP DEMAND BRANCH 13,TEST HOT WATER LOOP,Plant Demand,PERIMETER_MID_ZN_3 FOURPIPEFANCOIL HEATING COIL_WATER_INLET,PERIMETER_MID_ZN_3 FOURPIPEFANCOIL HEATING COIL_WATER_OUTLET
   Branch,15,TEST HOT WATER LOOP DEMAND BRANCH 14,TEST HOT WATER LOOP,Plant Demand,PERIMETER_MID_ZN_2 FOURPIPEFANCOIL HEATING COIL_WATER_INLET,PERIMETER_MID_ZN_2 FOURPIPEFANCOIL HEATING COIL_WATER_OUTLET
   Branch,16,TEST HOT WATER LOOP DEMAND BRANCH 15,TEST HOT WATER LOOP,Plant Demand,PERIMETER_MID_ZN_1 FOURPIPEFANCOIL HEATING COIL_WATER_INLET,PERIMETER_MID_ZN_1 FOURPIPEFANCOIL HEATING COIL_WATER_OUTLET
   Branch,17,TEST HOT WATER LOOP DEMAND BRANCH 16,TEST HOT WATER LOOP,Plant Demand,PERIMETER_MID_ZN_4 FOURPIPEFANCOIL HEATING COIL_WATER_INLET,PERIMETER_MID_ZN_4 FOURPIPEFANCOIL HEATING COIL_WATER_OUTLET
   Branch,18,TEST HOT WATER LOOP DEMAND BRANCH 17,TEST HOT WATER LOOP,Plant Demand,DATACENTER_MID_ZN_6 FOURPIPEFANCOIL HEATING COIL_WATER_INLET,DATACENTER_MID_ZN_6 FOURPIPEFANCOIL HEATING COIL_WATER_OUTLET
   Branch,19,TEST HOT WATER LOOP DEMAND BRANCH 18,TEST HOT WATER LOOP,Plant Demand,AHU HEATING COIL TOP_WATER_INLET,AHU HEATING COIL TOP_WATER_OUTLET
   Branch,20,TEST HOT WATER LOOP DEMAND BRANCH 19,TEST HOT WATER LOOP,Plant Demand,CORE_TOP FOURPIPEFANCOIL HEATING COIL_WATER_INLET,CORE_TOP FOURPIPEFANCOIL HEATING COIL_WATER_OUTLET
   Branch,21,TEST HOT WATER LOOP DEMAND BRANCH 20,TEST HOT WATER LOOP,Plant Demand,PERIMETER_TOP_ZN_3 FOURPIPEFANCOIL HEATING COIL_WATER_INLET,PERIMETER_TOP_ZN_3 FOURPIPEFANCOIL HEATING COIL_WATER_OUTLET
   Branch,22,TEST HOT WATER LOOP DEMAND BRANCH 21,TEST HOT WATER LOOP,Plant Demand,PERIMETER_TOP_ZN_2 FOURPIPEFANCOIL HEATING COIL_WATER_INLET,PERIMETER_TOP_ZN_2 FOURPIPEFANCOIL HEATING COIL_WATER_OUTLET
   Branch,23,TEST HOT WATER LOOP DEMAND BRANCH 22,TEST HOT WATER LOOP,Plant Demand,PERIMETER_TOP_ZN_1 FOURPIPEFANCOIL HEATING COIL_WATER_INLET,PERIMETER_TOP_ZN_1 FOURPIPEFANCOIL HEATING COIL_WATER_OUTLET
   Branch,24,TEST HOT WATER LOOP DEMAND BRANCH 23,TEST HOT WATER LOOP,Plant Demand,PERIMETER_TOP_ZN_4 FOURPIPEFANCOIL HEATING COIL_WATER_INLET,PERIMETER_TOP_ZN_4 FOURPIPEFANCOIL HEATING COIL_WATER_OUTLET
   Branch,25,TEST HOT WATER LOOP DEMAND BRANCH 24,TEST HOT WATER LOOP,Plant Demand,DATACENTER_TOP_ZN_6 FOURPIPEFANCOIL HEATING COIL_WATER_INLET,DATACENTER_TOP_ZN_6 FOURPIPEFANCOIL HEATING COIL_WATER_OUTLET
   Branch,26,TEST HOT WATER LOOP DEMAND OUTLET BRANCH,TEST HOT WATER LOOP,Plant Demand,TEST HOT WATER LOOP DEMAND OUTLET BRANCH PIPE_INLET,TEST HOT WATER LOOP DEMAND OUTLET
! ===============================================================
! <#Supply Air Paths>,<Number of Supply Air Paths>
 #Supply Air Paths,4
! <Supply Air Path>,<Supply Air Path Count>,<Supply Air Path Name>,<AirLoopHVAC Name>
! <#Components on Supply Air Path>,<Number of Components>
! <Supply Air Path Component>,<Component Count>,<Component Type>,<Component Name>,<AirLoopHVAC Name>
! <#Outlet Nodes on Supply Air Path Component>,<Number of Nodes>
! <Supply Air Path Component Nodes>,<Node Count>,<Component Type>,<Component Name>,<Inlet Node Name>,<Outlet Node Name>,<AirLoopHVAC Name>
 Supply Air Path,1,DOAS SYSTEM OTHER SUPPLY PATH,DOAS SYSTEM OTHER
   #Components on Supply Air Path,1
   Supply Air Path Component,1,AIRLOOPHVAC:ZONESPLITTER,DOAS SYSTEM OTHER ZONE SPLITTER,DOAS SYSTEM OTHER
     #Outlet Nodes on Supply Air Path Component,2
     Supply Air Path Component Nodes,1,AIRLOOPHVAC:ZONESPLITTER,DOAS SYSTEM OTHER ZONE SPLITTER,DOAS SYSTEM OTHER DEMAND INLET NODE,BASEMENT TERMINAL INLET,DOAS SYSTEM OTHER
     Supply Air Path Component Nodes,2,AIRLOOPHVAC:ZONESPLITTER,DOAS SYSTEM OTHER ZONE SPLITTER,DOAS SYSTEM OTHER DEMAND INLET NODE,DATACENTER_BASEMENT_ZN_6 TERMINAL INLET,DOAS SYSTEM OTHER
! <#Nodes on Supply Air Path>,<Number of Nodes>
! <Supply Air Path Node>,<Node Type>,<Node Count>,<Node Name>,<AirLoopHVAC Name>
#Nodes on Supply Air Path,3
   Supply Air Path Node,Inlet Node,1,DOAS SYSTEM OTHER DEMAND INLET NODE,DOAS SYSTEM OTHER
   Supply Air Path Node,Outlet Node,2,BASEMENT TERMINAL INLET,DOAS SYSTEM OTHER
   Supply Air Path Node,Outlet Node,3,DATACENTER_BASEMENT_ZN_6 TERMINAL INLET,DOAS SYSTEM OTHER
 Supply Air Path,2,DOAS SYSTEM BOT SUPPLY PATH,DOAS SYSTEM BOT
   #Components on Supply Air Path,1
   Supply Air Path Component,1,AIRLOOPHVAC:ZONESPLITTER,DOAS SYSTEM BOT ZONE SPLITTER,DOAS SYSTEM BOT
     #Outlet Nodes on Supply Air Path Component,6
     Supply Air Path Component Nodes,1,AIRLOOPHVAC:ZONESPLITTER,DOAS SYSTEM BOT ZONE SPLITTER,DOAS SYSTEM BOT DEMAND INLET NODE,CORE_BOTTOM TERMINAL INLET,DOAS SYSTEM BOT
     Supply Air Path Component Nodes,2,AIRLOOPHVAC:ZONESPLITTER,DOAS SYSTEM BOT ZONE SPLITTER,DOAS SYSTEM BOT DEMAND INLET NODE,PERIMETER_BOT_ZN_3 TERMINAL INLET,DOAS SYSTEM BOT
     Supply Air Path Component Nodes,3,AIRLOOPHVAC:ZONESPLITTER,DOAS SYSTEM BOT ZONE SPLITTER,DOAS SYSTEM BOT DEMAND INLET NODE,PERIMETER_BOT_ZN_2 TERMINAL INLET,DOAS SYSTEM BOT
     Supply Air Path Component Nodes,4,AIRLOOPHVAC:ZONESPLITTER,DOAS SYSTEM BOT ZONE SPLITTER,DOAS SYSTEM BOT DEMAND INLET NODE,PERIMETER_BOT_ZN_1 TERMINAL INLET,DOAS SYSTEM BOT
     Supply Air Path Component Nodes,5,AIRLOOPHVAC:ZONESPLITTER,DOAS SYSTEM BOT ZONE SPLITTER,DOAS SYSTEM BOT DEMAND INLET NODE,PERIMETER_BOT_ZN_4 TERMINAL INLET,DOAS SYSTEM BOT
     Supply Air Path Component Nodes,6,AIRLOOPHVAC:ZONESPLITTER,DOAS SYSTEM BOT ZONE SPLITTER,DOAS SYSTEM BOT DEMAND INLET NODE,DATACENTER_BOT_ZN_6 TERMINAL INLET,DOAS SYSTEM BOT
! <#Nodes on Supply Air Path>,<Number of Nodes>
! <Supply Air Path Node>,<Node Type>,<Node Count>,<Node Name>,<AirLoopHVAC Name>
#Nodes on Supply Air Path,7
   Supply Air Path Node,Inlet Node,1,DOAS SYSTEM BOT DEMAND INLET NODE,DOAS SYSTEM BOT
   Supply Air Path Node,Outlet Node,2,CORE_BOTTOM TERMINAL INLET,DOAS SYSTEM BOT
   Supply Air Path Node,Outlet Node,3,PERIMETER_BOT_ZN_3 TERMINAL INLET,DOAS SYSTEM BOT
   Supply Air Path Node,Outlet Node,4,PERIMETER_BOT_ZN_2 TERMINAL INLET,DOAS SYSTEM BOT
   Supply Air Path Node,Outlet Node,5,PERIMETER_BOT_ZN_1 TERMINAL INLET,DOAS SYSTEM BOT
   Supply Air Path Node,Outlet Node,6,PERIMETER_BOT_ZN_4 TERMINAL INLET,DOAS SYSTEM BOT
   Supply Air Path Node,Outlet Node,7,DATACENTER_BOT_ZN_6 TERMINAL INLET,DOAS SYSTEM BOT
 Supply Air Path,3,DOAS SYSTEM MID SUPPLY PATH,DOAS SYSTEM MID
   #Components on Supply Air Path,1
   Supply Air Path Component,1,AIRLOOPHVAC:ZONESPLITTER,DOAS SYSTEM MID ZONE SPLITTER,DOAS SYSTEM MID
     #Outlet Nodes on Supply Air Path Component,6
     Supply Air Path Component Nodes,1,AIRLOOPHVAC:ZONESPLITTER,DOAS SYSTEM MID ZONE SPLITTER,DOAS SYSTEM MID DEMAND INLET NODE,CORE_MID TERMINAL INLET,DOAS SYSTEM MID
     Supply Air Path Component Nodes,2,AIRLOOPHVAC:ZONESPLITTER,DOAS SYSTEM MID ZONE SPLITTER,DOAS SYSTEM MID DEMAND INLET NODE,PERIMETER_MID_ZN_3 TERMINAL INLET,DOAS SYSTEM MID
     Supply Air Path Component Nodes,3,AIRLOOPHVAC:ZONESPLITTER,DOAS SYSTEM MID ZONE SPLITTER,DOAS SYSTEM MID DEMAND INLET NODE,PERIMETER_MID_ZN_2 TERMINAL INLET,DOAS SYSTEM MID
     Supply Air Path Component Nodes,4,AIRLOOPHVAC:ZONESPLITTER,DOAS SYSTEM MID ZONE SPLITTER,DOAS SYSTEM MID DEMAND INLET NODE,PERIMETER_MID_ZN_1 TERMINAL INLET,DOAS SYSTEM MID
     Supply Air Path Component Nodes,5,AIRLOOPHVAC:ZONESPLITTER,DOAS SYSTEM MID ZONE SPLITTER,DOAS SYSTEM MID DEMAND INLET NODE,PERIMETER_MID_ZN_4 TERMINAL INLET,DOAS SYSTEM MID
     Supply Air Path Component Nodes,6,AIRLOOPHVAC:ZONESPLITTER,DOAS SYSTEM MID ZONE SPLITTER,DOAS SYSTEM MID DEMAND INLET NODE,DATACENTER_MID_ZN_6 TERMINAL INLET,DOAS SYSTEM MID
! <#Nodes on Supply Air Path>,<Number of Nodes>
! <Supply Air Path Node>,<Node Type>,<Node Count>,<Node Name>,<AirLoopHVAC Name>
#Nodes on Supply Air Path,7
   Supply Air Path Node,Inlet Node,1,DOAS SYSTEM MID DEMAND INLET NODE,DOAS SYSTEM MID
   Supply Air Path Node,Outlet Node,2,CORE_MID TERMINAL INLET,DOAS SYSTEM MID
   Supply Air Path Node,Outlet Node,3,PERIMETER_MID_ZN_3 TERMINAL INLET,DOAS SYSTEM MID
   Supply Air Path Node,Outlet Node,4,PERIMETER_MID_ZN_2 TERMINAL INLET,DOAS SYSTEM MID
   Supply Air Path Node,Outlet Node,5,PERIMETER_MID_ZN_1 TERMINAL INLET,DOAS SYSTEM MID
   Supply Air Path Node,Outlet Node,6,PERIMETER_MID_ZN_4 TERMINAL INLET,DOAS SYSTEM MID
   Supply Air Path Node,Outlet Node,7,DATACENTER_MID_ZN_6 TERMINAL INLET,DOAS SYSTEM MID
 Supply Air Path,4,DOAS SYSTEM TOP SUPPLY PATH,DOAS SYSTEM TOP
   #Components on Supply Air Path,1
   Supply Air Path Component,1,AIRLOOPHVAC:ZONESPLITTER,DOAS SYSTEM TOP ZONE SPLITTER,DOAS SYSTEM TOP
     #Outlet Nodes on Supply Air Path Component,6
     Supply Air Path Component Nodes,1,AIRLOOPHVAC:ZONESPLITTER,DOAS SYSTEM TOP ZONE SPLITTER,DOAS SYSTEM TOP DEMAND INLET NODE,CORE_TOP TERMINAL INLET,DOAS SYSTEM TOP
     Supply Air Path Component Nodes,2,AIRLOOPHVAC:ZONESPLITTER,DOAS SYSTEM TOP ZONE SPLITTER,DOAS SYSTEM TOP DEMAND INLET NODE,PERIMETER_TOP_ZN_3 TERMINAL INLET,DOAS SYSTEM TOP
     Supply Air Path Component Nodes,3,AIRLOOPHVAC:ZONESPLITTER,DOAS SYSTEM TOP ZONE SPLITTER,DOAS SYSTEM TOP DEMAND INLET NODE,PERIMETER_TOP_ZN_2 TERMINAL INLET,DOAS SYSTEM TOP
     Supply Air Path Component Nodes,4,AIRLOOPHVAC:ZONESPLITTER,DOAS SYSTEM TOP ZONE SPLITTER,DOAS SYSTEM TOP DEMAND INLET NODE,PERIMETER_TOP_ZN_1 TERMINAL INLET,DOAS SYSTEM TOP
     Supply Air Path Component Nodes,5,AIRLOOPHVAC:ZONESPLITTER,DOAS SYSTEM TOP ZONE SPLITTER,DOAS SYSTEM TOP DEMAND INLET NODE,PERIMETER_TOP_ZN_4 TERMINAL INLET,DOAS SYSTEM TOP
     Supply Air Path Component Nodes,6,AIRLOOPHVAC:ZONESPLITTER,DOAS SYSTEM TOP ZONE SPLITTER,DOAS SYSTEM TOP DEMAND INLET NODE,DATACENTER_TOP_ZN_6 TERMINAL INLET,DOAS SYSTEM TOP
! <#Nodes on Supply Air Path>,<Number of Nodes>
! <Supply Air Path Node>,<Node Type>,<Node Count>,<Node Name>,<AirLoopHVAC Name>
#Nodes on Supply Air Path,7
   Supply Air Path Node,Inlet Node,1,DOAS SYSTEM TOP DEMAND INLET NODE,DOAS SYSTEM TOP
   Supply Air Path Node,Outlet Node,2,CORE_TOP TERMINAL INLET,DOAS SYSTEM TOP
   Supply Air Path Node,Outlet Node,3,PERIMETER_TOP_ZN_3 TERMINAL INLET,DOAS SYSTEM TOP
   Supply Air Path Node,Outlet Node,4,PERIMETER_TOP_ZN_2 TERMINAL INLET,DOAS SYSTEM TOP
   Supply Air Path Node,Outlet Node,5,PERIMETER_TOP_ZN_1 TERMINAL INLET,DOAS SYSTEM TOP
   Supply Air Path Node,Outlet Node,6,PERIMETER_TOP_ZN_4 TERMINAL INLET,DOAS SYSTEM TOP
   Supply Air Path Node,Outlet Node,7,DATACENTER_TOP_ZN_6 TERMINAL INLET,DOAS SYSTEM TOP
! ===============================================================
! <#Return Air Paths>,<Number of Return Air Paths>
 #Return Air Paths,4
! <Return Air Path>,<Return Air Path Count>,<Return Air Path Name>,<AirLoopHVAC Name>
! <#Components on Return Air Path>,<Number of Components>
! <Return Air Path Component>,<Component Count>,<Component Type>,<Component Name>,<AirLoopHVAC Name>
! <#Inlet Nodes on Return Air Path Component>,<Number of Nodes>
! <Return Air Path Component Nodes>,<Node Count>,<Component Type>,<Component Name>,<Inlet Node Name>,<Outlet Node Name>,<AirLoopHVAC Name>
 Return Air Path,1,DOAS SYSTEM OTHER RETURN PATH,DOAS SYSTEM OTHER
   #Components on Return Air Path,1
   Return Air Path Component,1,AIRLOOPHVAC:ZONEMIXER,DOAS SYSTEM OTHER ZONE MIXER,DOAS SYSTEM OTHER
     #Inlet Nodes on Return Air Path Component,2
     Return Air Path Component Nodes,1,AIRLOOPHVAC:ZONEMIXER,DOAS SYSTEM OTHER ZONE MIXER,BASEMENT RETURN AIR INLET,DOAS SYSTEM OTHER DEMAND OUTLET NODE,DOAS SYSTEM OTHER
     Return Air Path Component Nodes,2,AIRLOOPHVAC:ZONEMIXER,DOAS SYSTEM OTHER ZONE MIXER,DATACENTER_BASEMENT_ZN_6 RETURN AIR INLET,DOAS SYSTEM OTHER DEMAND OUTLET NODE,DOAS SYSTEM OTHER
! <#Nodes on Return Air Path>,<Number of Nodes>
! <Return Air Path Node>,<Node Type>,<Node Count>,<Node Name>,<AirLoopHVAC Name>
   #Nodes on Return Air Path,3
   Return Air Path Node,Outlet Node,1,DOAS SYSTEM OTHER DEMAND OUTLET NODE,DOAS SYSTEM OTHER
   Return Air Path Node,Inlet Node,2,BASEMENT RETURN AIR INLET,DOAS SYSTEM OTHER
   Return Air Path Node,Inlet Node,3,DATACENTER_BASEMENT_ZN_6 RETURN AIR INLET,DOAS SYSTEM OTHER
 Return Air Path,2,DOAS SYSTEM BOT RETURN PATH,DOAS SYSTEM BOT
   #Components on Return Air Path,1
   Return Air Path Component,1,AIRLOOPHVAC:ZONEMIXER,DOAS SYSTEM BOT ZONE MIXER,DOAS SYSTEM BOT
     #Inlet Nodes on Return Air Path Component,6
     Return Air Path Component Nodes,1,AIRLOOPHVAC:ZONEMIXER,DOAS SYSTEM BOT ZONE MIXER,CORE_BOTTOM RETURN AIR INLET,DOAS SYSTEM BOT DEMAND OUTLET NODE,DOAS SYSTEM BOT
     Return Air Path Component Nodes,2,AIRLOOPHVAC:ZONEMIXER,DOAS SYSTEM BOT ZONE MIXER,PERIMETER_BOT_ZN_3 RETURN AIR INLET,DOAS SYSTEM BOT DEMAND OUTLET NODE,DOAS SYSTEM BOT
     Return Air Path Component Nodes,3,AIRLOOPHVAC:ZONEMIXER,DOAS SYSTEM BOT ZONE MIXER,PERIMETER_BOT_ZN_2 RETURN AIR INLET,DOAS SYSTEM BOT DEMAND OUTLET NODE,DOAS SYSTEM BOT
     Return Air Path Component Nodes,4,AIRLOOPHVAC:ZONEMIXER,DOAS SYSTEM BOT ZONE MIXER,PERIMETER_BOT_ZN_1 RETURN AIR INLET,DOAS SYSTEM BOT DEMAND OUTLET NODE,DOAS SYSTEM BOT
     Return Air Path Component Nodes,5,AIRLOOPHVAC:ZONEMIXER,DOAS SYSTEM BOT ZONE MIXER,PERIMETER_BOT_ZN_4 RETURN AIR INLET,DOAS SYSTEM BOT DEMAND OUTLET NODE,DOAS SYSTEM BOT
     Return Air Path Component Nodes,6,AIRLOOPHVAC:ZONEMIXER,DOAS SYSTEM BOT ZONE MIXER,DATACENTER_BOT_ZN_6 RETURN AIR INLET,DOAS SYSTEM BOT DEMAND OUTLET NODE,DOAS SYSTEM BOT
! <#Nodes on Return Air Path>,<Number of Nodes>
! <Return Air Path Node>,<Node Type>,<Node Count>,<Node Name>,<AirLoopHVAC Name>
   #Nodes on Return Air Path,7
   Return Air Path Node,Outlet Node,1,DOAS SYSTEM BOT DEMAND OUTLET NODE,DOAS SYSTEM BOT
   Return Air Path Node,Inlet Node,2,CORE_BOTTOM RETURN AIR INLET,DOAS SYSTEM BOT
   Return Air Path Node,Inlet Node,3,PERIMETER_BOT_ZN_3 RETURN AIR INLET,DOAS SYSTEM BOT
   Return Air Path Node,Inlet Node,4,PERIMETER_BOT_ZN_2 RETURN AIR INLET,DOAS SYSTEM BOT
   Return Air Path Node,Inlet Node,5,PERIMETER_BOT_ZN_1 RETURN AIR INLET,DOAS SYSTEM BOT
   Return Air Path Node,Inlet Node,6,PERIMETER_BOT_ZN_4 RETURN AIR INLET,DOAS SYSTEM BOT
   Return Air Path Node,Inlet Node,7,DATACENTER_BOT_ZN_6 RETURN AIR INLET,DOAS SYSTEM BOT
 Return Air Path,3,DOAS SYSTEM MID RETURN PATH,DOAS SYSTEM MID
   #Components on Return Air Path,1
   Return Air Path Component,1,AIRLOOPHVAC:ZONEMIXER,DOAS SYSTEM MID ZONE MIXER,DOAS SYSTEM MID
     #Inlet Nodes on Return Air Path Component,6
     Return Air Path Component Nodes,1,AIRLOOPHVAC:ZONEMIXER,DOAS SYSTEM MID ZONE MIXER,CORE_MID RETURN AIR INLET,DOAS SYSTEM MID DEMAND OUTLET NODE,DOAS SYSTEM MID
     Return Air Path Component Nodes,2,AIRLOOPHVAC:ZONEMIXER,DOAS SYSTEM MID ZONE MIXER,PERIMETER_MID_ZN_3 RETURN AIR INLET,DOAS SYSTEM MID DEMAND OUTLET NODE,DOAS SYSTEM MID
     Return Air Path Component Nodes,3,AIRLOOPHVAC:ZONEMIXER,DOAS SYSTEM MID ZONE MIXER,PERIMETER_MID_ZN_2 RETURN AIR INLET,DOAS SYSTEM MID DEMAND OUTLET NODE,DOAS SYSTEM MID
     Return Air Path Component Nodes,4,AIRLOOPHVAC:ZONEMIXER,DOAS SYSTEM MID ZONE MIXER,PERIMETER_MID_ZN_1 RETURN AIR INLET,DOAS SYSTEM MID DEMAND OUTLET NODE,DOAS SYSTEM MID
     Return Air Path Component Nodes,5,AIRLOOPHVAC:ZONEMIXER,DOAS SYSTEM MID ZONE MIXER,PERIMETER_MID_ZN_4 RETURN AIR INLET,DOAS SYSTEM MID DEMAND OUTLET NODE,DOAS SYSTEM MID
     Return Air Path Component Nodes,6,AIRLOOPHVAC:ZONEMIXER,DOAS SYSTEM MID ZONE MIXER,DATACENTER_MID_ZN_6 RETURN AIR INLET,DOAS SYSTEM MID DEMAND OUTLET NODE,DOAS SYSTEM MID
! <#Nodes on Return Air Path>,<Number of Nodes>
! <Return Air Path Node>,<Node Type>,<Node Count>,<Node Name>,<AirLoopHVAC Name>
   #Nodes on Return Air Path,7
   Return Air Path Node,Outlet Node,1,DOAS SYSTEM MID DEMAND OUTLET NODE,DOAS SYSTEM MID
   Return Air Path Node,Inlet Node,2,CORE_MID RETURN AIR INLET,DOAS SYSTEM MID
   Return Air Path Node,Inlet Node,3,PERIMETER_MID_ZN_3 RETURN AIR INLET,DOAS SYSTEM MID
   Return Air Path Node,Inlet Node,4,PERIMETER_MID_ZN_2 RETURN AIR INLET,DOAS SYSTEM MID
   Return Air Path Node,Inlet Node,5,PERIMETER_MID_ZN_1 RETURN AIR INLET,DOAS SYSTEM MID
   Return Air Path Node,Inlet Node,6,PERIMETER_MID_ZN_4 RETURN AIR INLET,DOAS SYSTEM MID
   Return Air Path Node,Inlet Node,7,DATACENTER_MID_ZN_6 RETURN AIR INLET,DOAS SYSTEM MID
 Return Air Path,4,DOAS SYSTEM TOP RETURN PATH,DOAS SYSTEM TOP
   #Components on Return Air Path,1
   Return Air Path Component,1,AIRLOOPHVAC:ZONEMIXER,DOAS SYSTEM TOP ZONE MIXER,DOAS SYSTEM TOP
     #Inlet Nodes on Return Air Path Component,6
     Return Air Path Component Nodes,1,AIRLOOPHVAC:ZONEMIXER,DOAS SYSTEM TOP ZONE MIXER,CORE_TOP RETURN AIR INLET,DOAS SYSTEM TOP DEMAND OUTLET NODE,DOAS SYSTEM TOP
     Return Air Path Component Nodes,2,AIRLOOPHVAC:ZONEMIXER,DOAS SYSTEM TOP ZONE MIXER,PERIMETER_TOP_ZN_3 RETURN AIR INLET,DOAS SYSTEM TOP DEMAND OUTLET NODE,DOAS SYSTEM TOP
     Return Air Path Component Nodes,3,AIRLOOPHVAC:ZONEMIXER,DOAS SYSTEM TOP ZONE MIXER,PERIMETER_TOP_ZN_2 RETURN AIR INLET,DOAS SYSTEM TOP DEMAND OUTLET NODE,DOAS SYSTEM TOP
     Return Air Path Component Nodes,4,AIRLOOPHVAC:ZONEMIXER,DOAS SYSTEM TOP ZONE MIXER,PERIMETER_TOP_ZN_1 RETURN AIR INLET,DOAS SYSTEM TOP DEMAND OUTLET NODE,DOAS SYSTEM TOP
     Return Air Path Component Nodes,5,AIRLOOPHVAC:ZONEMIXER,DOAS SYSTEM TOP ZONE MIXER,PERIMETER_TOP_ZN_4 RETURN AIR INLET,DOAS SYSTEM TOP DEMAND OUTLET NODE,DOAS SYSTEM TOP
     Return Air Path Component Nodes,6,AIRLOOPHVAC:ZONEMIXER,DOAS SYSTEM TOP ZONE MIXER,DATACENTER_TOP_ZN_6 RETURN AIR INLET,DOAS SYSTEM TOP DEMAND OUTLET NODE,DOAS SYSTEM TOP
! <#Nodes on Return Air Path>,<Number of Nodes>
! <Return Air Path Node>,<Node Type>,<Node Count>,<Node Name>,<AirLoopHVAC Name>
   #Nodes on Return Air Path,7
   Return Air Path Node,Outlet Node,1,DOAS SYSTEM TOP DEMAND OUTLET NODE,DOAS SYSTEM TOP
   Return Air Path Node,Inlet Node,2,CORE_TOP RETURN AIR INLET,DOAS SYSTEM TOP
   Return Air Path Node,Inlet Node,3,PERIMETER_TOP_ZN_3 RETURN AIR INLET,DOAS SYSTEM TOP
   Return Air Path Node,Inlet Node,4,PERIMETER_TOP_ZN_2 RETURN AIR INLET,DOAS SYSTEM TOP
   Return Air Path Node,Inlet Node,5,PERIMETER_TOP_ZN_1 RETURN AIR INLET,DOAS SYSTEM TOP
   Return Air Path Node,Inlet Node,6,PERIMETER_TOP_ZN_4 RETURN AIR INLET,DOAS SYSTEM TOP
   Return Air Path Node,Inlet Node,7,DATACENTER_TOP_ZN_6 RETURN AIR INLET,DOAS SYSTEM TOP
! ===============================================================
! #Outdoor Air Nodes,<Number of Outdoor Air Nodes>
 #Outdoor Air Nodes,24
! <Outdoor Air Node>,<NodeNumber>,<Node Name>
 Outdoor Air Node,257,DOAS SYSTEM OTHER OUTDOOR AIR SYSTEM CONTROLLER OUTDOOR_AIR_INLET
 Outdoor Air Node,258,BASEMENT FOURPIPEFANCOIL OA MIXER OUTDOOR AIR NODE
 Outdoor Air Node,259,DATACENTER_BASEMENT_ZN_6 FOURPIPEFANCOIL OA MIXER OUTDOOR AIR NODE
 Outdoor Air Node,260,DOAS SYSTEM BOT OUTDOOR AIR SYSTEM CONTROLLER OUTDOOR_AIR_INLET
 Outdoor Air Node,261,CORE_BOTTOM FOURPIPEFANCOIL OA MIXER OUTDOOR AIR NODE
 Outdoor Air Node,262,PERIMETER_BOT_ZN_3 FOURPIPEFANCOIL OA MIXER OUTDOOR AIR NODE
 Outdoor Air Node,263,PERIMETER_BOT_ZN_2 FOURPIPEFANCOIL OA MIXER OUTDOOR AIR NODE
 Outdoor Air Node,264,PERIMETER_BOT_ZN_1 FOURPIPEFANCOIL OA MIXER OUTDOOR AIR NODE
 Outdoor Air Node,265,PERIMETER_BOT_ZN_4 FOURPIPEFANCOIL OA MIXER OUTDOOR AIR NODE
 Outdoor Air Node,266,DATACENTER_BOT_ZN_6 FOURPIPEFANCOIL OA MIXER OUTDOOR AIR NODE
 Outdoor Air Node,267,DOAS SYSTEM MID OUTDOOR AIR SYSTEM CONTROLLER OUTDOOR_AIR_INLET
 Outdoor Air Node,268,CORE_MID FOURPIPEFANCOIL OA MIXER OUTDOOR AIR NODE
 Outdoor Air Node,269,PERIMETER_MID_ZN_3 FOURPIPEFANCOIL OA MIXER OUTDOOR AIR NODE
 Outdoor Air Node,270,PERIMETER_MID_ZN_2 FOURPIPEFANCOIL OA MIXER OUTDOOR AIR NODE
 Outdoor Air Node,271,PERIMETER_MID_ZN_1 FOURPIPEFANCOIL OA MIXER OUTDOOR AIR NODE
 Outdoor Air Node,272,PERIMETER_MID_ZN_4 FOURPIPEFANCOIL OA MIXER OUTDOOR AIR NODE
 Outdoor Air Node,273,DATACENTER_MID_ZN_6 FOURPIPEFANCOIL OA MIXER OUTDOOR AIR NODE
 Outdoor Air Node,274,DOAS SYSTEM TOP OUTDOOR AIR SYSTEM CONTROLLER OUTDOOR_AIR_INLET
 Outdoor Air Node,275,CORE_TOP FOURPIPEFANCOIL OA MIXER OUTDOOR AIR NODE
 Outdoor Air Node,276,PERIMETER_TOP_ZN_3 FOURPIPEFANCOIL OA MIXER OUTDOOR AIR NODE
 Outdoor Air Node,277,PERIMETER_TOP_ZN_2 FOURPIPEFANCOIL OA MIXER OUTDOOR AIR NODE
 Outdoor Air Node,278,PERIMETER_TOP_ZN_1 FOURPIPEFANCOIL OA MIXER OUTDOOR AIR NODE
 Outdoor Air Node,279,PERIMETER_TOP_ZN_4 FOURPIPEFANCOIL OA MIXER OUTDOOR AIR NODE
 Outdoor Air Node,280,DATACENTER_TOP_ZN_6 FOURPIPEFANCOIL OA MIXER OUTDOOR AIR NODE
! ===============================================================
! <#Component Sets>,<Number of Component Sets>
 #Component Sets,184
! <Component Set>,<Component Set Count>,<Parent Object Type>,<Parent Object Name>,<Component Type>,<Component Name>,<Inlet Node ID>,<Outlet Node ID>,<Description>
 Component Set,1,BRANCH,DOAS SYSTEM OTHER MAIN BRANCH,AIRLOOPHVAC:OUTDOORAIRSYSTEM,DOAS SYSTEM OTHER OUTDOOR AIR SYSTEM,DOAS SYSTEM OTHER SUPPLY INLET NODE,DOAS SYSTEM OTHER OUTDOOR AIR SYSTEM CONTROLLER MIXED_AIR,Air Nodes
 Component Set,2,BRANCH,DOAS SYSTEM OTHER MAIN BRANCH,COIL:COOLING:WATER,AHU COOLING COIL OTHER,DOAS SYSTEM OTHER OUTDOOR AIR SYSTEM CONTROLLER MIXED_AIR,AHU COOLING COIL OTHER_AIR_OUTLET,Air Nodes
 Component Set,3,BRANCH,DOAS SYSTEM OTHER MAIN BRANCH,COIL:HEATING:WATER,AHU HEATING COIL OTHER,AHU COOLING COIL OTHER_AIR_OUTLET,FAN OTHER AIR INLET,Air Nodes
 Component Set,4,BRANCH,DOAS SYSTEM OTHER MAIN BRANCH,FAN:VARIABLEVOLUME,FAN OTHER,FAN OTHER AIR INLET,DOAS SYSTEM OTHER SUPPLY OUTLET NODE,Air Nodes
 Component Set,5,BRANCH,DOAS SYSTEM BOT MAIN BRANCH,AIRLOOPHVAC:OUTDOORAIRSYSTEM,DOAS SYSTEM BOT OUTDOOR AIR SYSTEM,DOAS SYSTEM BOT SUPPLY INLET NODE,DOAS SYSTEM BOT OUTDOOR AIR SYSTEM CONTROLLER MIXED_AIR,Air Nodes
 Component Set,6,BRANCH,DOAS SYSTEM BOT MAIN BRANCH,COIL:COOLING:WATER,AHU COOLING COIL BOT,DOAS SYSTEM BOT OUTDOOR AIR SYSTEM CONTROLLER MIXED_AIR,AHU COOLING COIL BOT_AIR_OUTLET,Air Nodes
 Component Set,7,BRANCH,DOAS SYSTEM BOT MAIN BRANCH,COIL:HEATING:WATER,AHU HEATING COIL BOT,AHU COOLING COIL BOT_AIR_OUTLET,FAN BOT AIR INLET,Air Nodes
 Component Set,8,BRANCH,DOAS SYSTEM BOT MAIN BRANCH,FAN:VARIABLEVOLUME,FAN BOT,FAN BOT AIR INLET,DOAS SYSTEM BOT SUPPLY OUTLET NODE,Air Nodes
 Component Set,9,BRANCH,DOAS SYSTEM MID MAIN BRANCH,AIRLOOPHVAC:OUTDOORAIRSYSTEM,DOAS SYSTEM MID OUTDOOR AIR SYSTEM,DOAS SYSTEM MID SUPPLY INLET NODE,DOAS SYSTEM MID OUTDOOR AIR SYSTEM CONTROLLER MIXED_AIR,Air Nodes
 Component Set,10,BRANCH,DOAS SYSTEM MID MAIN BRANCH,COIL:COOLING:WATER,AHU COOLING COIL MID,DOAS SYSTEM MID OUTDOOR AIR SYSTEM CONTROLLER MIXED_AIR,AHU COOLING COIL MID_AIR_OUTLET,Air Nodes
 Component Set,11,BRANCH,DOAS SYSTEM MID MAIN BRANCH,COIL:HEATING:WATER,AHU HEATING COIL MID,AHU COOLING COIL MID_AIR_OUTLET,FAN MID AIR INLET,Air Nodes
 Component Set,12,BRANCH,DOAS SYSTEM MID MAIN BRANCH,FAN:VARIABLEVOLUME,FAN MID,FAN MID AIR INLET,DOAS SYSTEM MID SUPPLY OUTLET NODE,Air Nodes
 Component Set,13,BRANCH,DOAS SYSTEM TOP MAIN BRANCH,AIRLOOPHVAC:OUTDOORAIRSYSTEM,DOAS SYSTEM TOP OUTDOOR AIR SYSTEM,DOAS SYSTEM TOP SUPPLY INLET NODE,DOAS SYSTEM TOP OUTDOOR AIR SYSTEM CONTROLLER MIXED_AIR,Air Nodes
 Component Set,14,BRANCH,DOAS SYSTEM TOP MAIN BRANCH,COIL:COOLING:WATER,AHU COOLING COIL TOP,DOAS SYSTEM TOP OUTDOOR AIR SYSTEM CONTROLLER MIXED_AIR,AHU COOLING COIL TOP_AIR_OUTLET,Air Nodes
 Component Set,15,BRANCH,DOAS SYSTEM TOP MAIN BRANCH,COIL:HEATING:WATER,AHU HEATING COIL TOP,AHU COOLING COIL TOP_AIR_OUTLET,FAN TOP AIR INLET,Air Nodes
 Component Set,16,BRANCH,DOAS SYSTEM TOP MAIN BRANCH,FAN:VARIABLEVOLUME,FAN TOP,FAN TOP AIR INLET,DOAS SYSTEM TOP SUPPLY OUTLET NODE,Air Nodes
 Component Set,17,BRANCH,TEST CHILLED WATER LOOP SUPPLY INLET BRANCH,PUMP:VARIABLESPEED,CHW PUMP,TEST CHILLED WATER LOOP SUPPLY INLET,CHW PUMP_WATER_OUTLET,Water Nodes
 Component Set,18,BRANCH,TEST CHILLED WATER LOOP SUPPLY BRANCH 1,CHILLER:ELECTRIC:EIR,CHILLER 1,CHILLER 1 CHILLED_WATER_INLET,CHILLER 1 CHILLED_WATER_OUTLET,Chilled Water Nodes
 Component Set,19,BRANCH,TEST CHILLED WATER LOOP SUPPLY OUTLET BRANCH,PIPE:ADIABATIC,TEST CHILLED WATER LOOP SUPPLY OUTLET BRANCH PIPE,TEST CHILLED WATER LOOP SUPPLY OUTLET BRANCH PIPE_INLET,TEST CHILLED WATER LOOP SUPPLY OUTLET,Pipe Nodes
 Component Set,20,BRANCH,TEST CHILLED WATER LOOP DEMAND INLET BRANCH,PIPE:ADIABATIC,TEST CHILLED WATER LOOP DEMAND INLET BRANCH PIPE,TEST CHILLED WATER LOOP DEMAND INLET,TEST CHILLED WATER LOOP DEMAND INLET BRANCH PIPE_OUTLET,Pipe Nodes
 Component Set,21,BRANCH,TEST CHILLED WATER LOOP DEMAND BRANCH 1,COIL:COOLING:WATER,AHU COOLING COIL OTHER,AHU COOLING COIL OTHER_WATER_INLET,AHU COOLING COIL OTHER_WATER_OUTLET,Water Nodes
 Component Set,22,BRANCH,TEST CHILLED WATER LOOP DEMAND BRANCH 2,COIL:COOLING:WATER,BASEMENT FOURPIPEFANCOIL COOLING COIL,BASEMENT FOURPIPEFANCOIL COOLING COIL_WATER_INLET,BASEMENT FOURPIPEFANCOIL COOLING COIL_WATER_OUTLET,Water Nodes
 Component Set,23,BRANCH,TEST CHILLED WATER LOOP DEMAND BRANCH 3,COIL:COOLING:WATER,DATACENTER_BASEMENT_ZN_6 FOURPIPEFANCOIL COOLING COIL,DATACENTER_BASEMENT_ZN_6 FOURPIPEFANCOIL COOLING COIL_WATER_INLET,DATACENTER_BASEMENT_ZN_6 FOURPIPEFANCOIL COOLING COIL_WATER_OUTLET,Water Nodes
 Component Set,24,BRANCH,TEST CHILLED WATER LOOP DEMAND BRANCH 4,COIL:COOLING:WATER,AHU COOLING COIL BOT,AHU COOLING COIL BOT_WATER_INLET,AHU COOLING COIL BOT_WATER_OUTLET,Water Nodes
 Component Set,25,BRANCH,TEST CHILLED WATER LOOP DEMAND BRANCH 5,COIL:COOLING:WATER,CORE_BOTTOM FOURPIPEFANCOIL COOLING COIL,CORE_BOTTOM FOURPIPEFANCOIL COOLING COIL_WATER_INLET,CORE_BOTTOM FOURPIPEFANCOIL COOLING COIL_WATER_OUTLET,Water Nodes
 Component Set,26,BRANCH,TEST CHILLED WATER LOOP DEMAND BRANCH 6,COIL:COOLING:WATER,PERIMETER_BOT_ZN_3 FOURPIPEFANCOIL COOLING COIL,PERIMETER_BOT_ZN_3 FOURPIPEFANCOIL COOLING COIL_WATER_INLET,PERIMETER_BOT_ZN_3 FOURPIPEFANCOIL COOLING COIL_WATER_OUTLET,Water Nodes
 Component Set,27,BRANCH,TEST CHILLED WATER LOOP DEMAND BRANCH 7,COIL:COOLING:WATER,PERIMETER_BOT_ZN_2 FOURPIPEFANCOIL COOLING COIL,PERIMETER_BOT_ZN_2 FOURPIPEFANCOIL COOLING COIL_WATER_INLET,PERIMETER_BOT_ZN_2 FOURPIPEFANCOIL COOLING COIL_WATER_OUTLET,Water Nodes
 Component Set,28,BRANCH,TEST CHILLED WATER LOOP DEMAND BRANCH 8,COIL:COOLING:WATER,PERIMETER_BOT_ZN_1 FOURPIPEFANCOIL COOLING COIL,PERIMETER_BOT_ZN_1 FOURPIPEFANCOIL COOLING COIL_WATER_INLET,PERIMETER_BOT_ZN_1 FOURPIPEFANCOIL COOLING COIL_WATER_OUTLET,Water Nodes
 Component Set,29,BRANCH,TEST CHILLED WATER LOOP DEMAND BRANCH 9,COIL:COOLING:WATER,PERIMETER_BOT_ZN_4 FOURPIPEFANCOIL COOLING COIL,PERIMETER_BOT_ZN_4 FOURPIPEFANCOIL COOLING COIL_WATER_INLET,PERIMETER_BOT_ZN_4 FOURPIPEFANCOIL COOLING COIL_WATER_OUTLET,Water Nodes
 Component Set,30,BRANCH,TEST CHILLED WATER LOOP DEMAND BRANCH 10,COIL:COOLING:WATER,DATACENTER_BOT_ZN_6 FOURPIPEFANCOIL COOLING COIL,DATACENTER_BOT_ZN_6 FOURPIPEFANCOIL COOLING COIL_WATER_INLET,DATACENTER_BOT_ZN_6 FOURPIPEFANCOIL COOLING COIL_WATER_OUTLET,Water Nodes
 Component Set,31,BRANCH,TEST CHILLED WATER LOOP DEMAND BRANCH 11,COIL:COOLING:WATER,AHU COOLING COIL MID,AHU COOLING COIL MID_WATER_INLET,AHU COOLING COIL MID_WATER_OUTLET,Water Nodes
 Component Set,32,BRANCH,TEST CHILLED WATER LOOP DEMAND BRANCH 12,COIL:COOLING:WATER,CORE_MID FOURPIPEFANCOIL COOLING COIL,CORE_MID FOURPIPEFANCOIL COOLING COIL_WATER_INLET,CORE_MID FOURPIPEFANCOIL COOLING COIL_WATER_OUTLET,Water Nodes
 Component Set,33,BRANCH,TEST CHILLED WATER LOOP DEMAND BRANCH 13,COIL:COOLING:WATER,PERIMETER_MID_ZN_3 FOURPIPEFANCOIL COOLING COIL,PERIMETER_MID_ZN_3 FOURPIPEFANCOIL COOLING COIL_WATER_INLET,PERIMETER_MID_ZN_3 FOURPIPEFANCOIL COOLING COIL_WATER_OUTLET,Water Nodes
 Component Set,34,BRANCH,TEST CHILLED WATER LOOP DEMAND BRANCH 14,COIL:COOLING:WATER,PERIMETER_MID_ZN_2 FOURPIPEFANCOIL COOLING COIL,PERIMETER_MID_ZN_2 FOURPIPEFANCOIL COOLING COIL_WATER_INLET,PERIMETER_MID_ZN_2 FOURPIPEFANCOIL COOLING COIL_WATER_OUTLET,Water Nodes
 Component Set,35,BRANCH,TEST CHILLED WATER LOOP DEMAND BRANCH 15,COIL:COOLING:WATER,PERIMETER_MID_ZN_1 FOURPIPEFANCOIL COOLING COIL,PERIMETER_MID_ZN_1 FOURPIPEFANCOIL COOLING COIL_WATER_INLET,PERIMETER_MID_ZN_1 FOURPIPEFANCOIL COOLING COIL_WATER_OUTLET,Water Nodes
 Component Set,36,BRANCH,TEST CHILLED WATER LOOP DEMAND BRANCH 16,COIL:COOLING:WATER,PERIMETER_MID_ZN_4 FOURPIPEFANCOIL COOLING COIL,PERIMETER_MID_ZN_4 FOURPIPEFANCOIL COOLING COIL_WATER_INLET,PERIMETER_MID_ZN_4 FOURPIPEFANCOIL COOLING COIL_WATER_OUTLET,Water Nodes
 Component Set,37,BRANCH,TEST CHILLED WATER LOOP DEMAND BRANCH 17,COIL:COOLING:WATER,DATACENTER_MID_ZN_6 FOURPIPEFANCOIL COOLING COIL,DATACENTER_MID_ZN_6 FOURPIPEFANCOIL COOLING COIL_WATER_INLET,DATACENTER_MID_ZN_6 FOURPIPEFANCOIL COOLING COIL_WATER_OUTLET,Water Nodes
 Component Set,38,BRANCH,TEST CHILLED WATER LOOP DEMAND BRANCH 18,COIL:COOLING:WATER,AHU COOLING COIL TOP,AHU COOLING COIL TOP_WATER_INLET,AHU COOLING COIL TOP_WATER_OUTLET,Water Nodes
 Component Set,39,BRANCH,TEST CHILLED WATER LOOP DEMAND BRANCH 19,COIL:COOLING:WATER,CORE_TOP FOURPIPEFANCOIL COOLING COIL,CORE_TOP FOURPIPEFANCOIL COOLING COIL_WATER_INLET,CORE_TOP FOURPIPEFANCOIL COOLING COIL_WATER_OUTLET,Water Nodes
 Component Set,40,BRANCH,TEST CHILLED WATER LOOP DEMAND BRANCH 20,COIL:COOLING:WATER,PERIMETER_TOP_ZN_3 FOURPIPEFANCOIL COOLING COIL,PERIMETER_TOP_ZN_3 FOURPIPEFANCOIL COOLING COIL_WATER_INLET,PERIMETER_TOP_ZN_3 FOURPIPEFANCOIL COOLING COIL_WATER_OUTLET,Water Nodes
 Component Set,41,BRANCH,TEST CHILLED WATER LOOP DEMAND BRANCH 21,COIL:COOLING:WATER,PERIMETER_TOP_ZN_2 FOURPIPEFANCOIL COOLING COIL,PERIMETER_TOP_ZN_2 FOURPIPEFANCOIL COOLING COIL_WATER_INLET,PERIMETER_TOP_ZN_2 FOURPIPEFANCOIL COOLING COIL_WATER_OUTLET,Water Nodes
 Component Set,42,BRANCH,TEST CHILLED WATER LOOP DEMAND BRANCH 22,COIL:COOLING:WATER,PERIMETER_TOP_ZN_1 FOURPIPEFANCOIL COOLING COIL,PERIMETER_TOP_ZN_1 FOURPIPEFANCOIL COOLING COIL_WATER_INLET,PERIMETER_TOP_ZN_1 FOURPIPEFANCOIL COOLING COIL_WATER_OUTLET,Water Nodes
 Component Set,43,BRANCH,TEST CHILLED WATER LOOP DEMAND BRANCH 23,COIL:COOLING:WATER,PERIMETER_TOP_ZN_4 FOURPIPEFANCOIL COOLING COIL,PERIMETER_TOP_ZN_4 FOURPIPEFANCOIL COOLING COIL_WATER_INLET,PERIMETER_TOP_ZN_4 FOURPIPEFANCOIL COOLING COIL_WATER_OUTLET,Water Nodes
 Component Set,44,BRANCH,TEST CHILLED WATER LOOP DEMAND BRANCH 24,COIL:COOLING:WATER,DATACENTER_TOP_ZN_6 FOURPIPEFANCOIL COOLING COIL,DATACENTER_TOP_ZN_6 FOURPIPEFANCOIL COOLING COIL_WATER_INLET,DATACENTER_TOP_ZN_6 FOURPIPEFANCOIL COOLING COIL_WATER_OUTLET,Water Nodes
 Component Set,45,BRANCH,TEST CHILLED WATER LOOP DEMAND OUTLET BRANCH,PIPE:ADIABATIC,TEST CHILLED WATER LOOP DEMAND OUTLET BRANCH PIPE,TEST CHILLED WATER LOOP DEMAND OUTLET BRANCH PIPE_INLET,TEST CHILLED WATER LOOP DEMAND OUTLET,Pipe Nodes
 Component Set,46,BRANCH,TEST CONDENSER WATER LOOP SUPPLY INLET BRANCH,PUMP:VARIABLESPEED,CW PUMP,TEST CONDENSER WATER LOOP SUPPLY INLET,CW PUMP_WATER_OUTLET,Water Nodes
 Component Set,47,BRANCH,TEST CONDENSER WATER LOOP SUPPLY BRANCH 1,COOLINGTOWER:SINGLESPEED,COOLING TOWER 1,COOLING TOWER 1 WATER_INLET,COOLING TOWER 1 WATER_OUTLET,Chilled Water Nodes
 Component Set,48,BRANCH,TEST CONDENSER WATER LOOP SUPPLY OUTLET BRANCH,PIPE:ADIABATIC,TEST CONDENSER WATER LOOP SUPPLY OUTLET BRANCH PIPE,TEST CONDENSER WATER LOOP SUPPLY OUTLET BRANCH PIPE_INLET,TEST CONDENSER WATER LOOP SUPPLY OUTLET,Pipe Nodes
 Component Set,49,BRANCH,TEST CONDENSER WATER LOOP DEMAND INLET BRANCH,PIPE:ADIABATIC,TEST CONDENSER WATER LOOP DEMAND INLET BRANCH PIPE,TEST CONDENSER WATER LOOP DEMAND INLET,TEST CONDENSER WATER LOOP DEMAND INLET BRANCH PIPE_OUTLET,Pipe Nodes
 Component Set,50,BRANCH,TEST CONDENSER WATER LOOP DEMAND BRANCH 1,CHILLER:ELECTRIC:EIR,CHILLER 1,CHILLER 1 CONDENSER_WATER_INLET,CHILLER 1 CONDENSER_WATER_OUTLET,Condenser Water Nodes
 Component Set,51,BRANCH,TEST CONDENSER WATER LOOP DEMAND OUTLET BRANCH,PIPE:ADIABATIC,TEST CONDENSER WATER LOOP DEMAND OUTLET BRANCH PIPE,TEST CONDENSER WATER LOOP DEMAND OUTLET BRANCH PIPE_INLET,TEST CONDENSER WATER LOOP DEMAND OUTLET,Pipe Nodes
 Component Set,52,BRANCH,TEST HOT WATER LOOP SUPPLY INLET BRANCH,PUMP:VARIABLESPEED,HW PUMP,TEST HOT WATER LOOP SUPPLY INLET,HW PUMP_WATER_OUTLET,Water Nodes
 Component Set,53,BRANCH,TEST HOT WATER LOOP SUPPLY BRANCH 1,DISTRICTHEATING:WATER,DISTRICT HEATING,DISTRICT HEATING HOT_WATER_INLET,DISTRICT HEATING HOT_WATER_OUTLET,Hot Water Nodes
 Component Set,54,BRANCH,TEST HOT WATER LOOP SUPPLY OUTLET BRANCH,PIPE:ADIABATIC,TEST HOT WATER LOOP SUPPLY OUTLET BRANCH PIPE,TEST HOT WATER LOOP SUPPLY OUTLET BRANCH PIPE_INLET,TEST HOT WATER LOOP SUPPLY OUTLET,Pipe Nodes
 Component Set,55,BRANCH,TEST HOT WATER LOOP DEMAND INLET BRANCH,PIPE:ADIABATIC,TEST HOT WATER LOOP DEMAND INLET BRANCH PIPE,TEST HOT WATER LOOP DEMAND INLET,TEST HOT WATER LOOP DEMAND INLET BRANCH PIPE_OUTLET,Pipe Nodes
 Component Set,56,BRANCH,TEST HOT WATER LOOP DEMAND BRANCH 1,COIL:HEATING:WATER,AHU HEATING COIL OTHER,AHU HEATING COIL OTHER_WATER_INLET,AHU HEATING COIL OTHER_WATER_OUTLET,Water Nodes
 Component Set,57,BRANCH,TEST HOT WATER LOOP DEMAND BRANCH 2,COIL:HEATING:WATER,BASEMENT FOURPIPEFANCOIL HEATING COIL,BASEMENT FOURPIPEFANCOIL HEATING COIL_WATER_INLET,BASEMENT FOURPIPEFANCOIL HEATING COIL_WATER_OUTLET,Water Nodes
 Component Set,58,BRANCH,TEST HOT WATER LOOP DEMAND BRANCH 3,COIL:HEATING:WATER,DATACENTER_BASEMENT_ZN_6 FOURPIPEFANCOIL HEATING COIL,DATACENTER_BASEMENT_ZN_6 FOURPIPEFANCOIL HEATING COIL_WATER_INLET,DATACENTER_BASEMENT_ZN_6 FOURPIPEFANCOIL HEATING COIL_WATER_OUTLET,Water Nodes
 Component Set,59,BRANCH,TEST HOT WATER LOOP DEMAND BRANCH 4,COIL:HEATING:WATER,AHU HEATING COIL BOT,AHU HEATING COIL BOT_WATER_INLET,AHU HEATING COIL BOT_WATER_OUTLET,Water Nodes
 Component Set,60,BRANCH,TEST HOT WATER LOOP DEMAND BRANCH 5,COIL:HEATING:WATER,CORE_BOTTOM FOURPIPEFANCOIL HEATING COIL,CORE_BOTTOM FOURPIPEFANCOIL HEATING COIL_WATER_INLET,CORE_BOTTOM FOURPIPEFANCOIL HEATING COIL_WATER_OUTLET,Water Nodes
 Component Set,61,BRANCH,TEST HOT WATER LOOP DEMAND BRANCH 6,COIL:HEATING:WATER,PERIMETER_BOT_ZN_3 FOURPIPEFANCOIL HEATING COIL,PERIMETER_BOT_ZN_3 FOURPIPEFANCOIL HEATING COIL_WATER_INLET,PERIMETER_BOT_ZN_3 FOURPIPEFANCOIL HEATING COIL_WATER_OUTLET,Water Nodes
 Component Set,62,BRANCH,TEST HOT WATER LOOP DEMAND BRANCH 7,COIL:HEATING:WATER,PERIMETER_BOT_ZN_2 FOURPIPEFANCOIL HEATING COIL,PERIMETER_BOT_ZN_2 FOURPIPEFANCOIL HEATING COIL_WATER_INLET,PERIMETER_BOT_ZN_2 FOURPIPEFANCOIL HEATING COIL_WATER_OUTLET,Water Nodes
 Component Set,63,BRANCH,TEST HOT WATER LOOP DEMAND BRANCH 8,COIL:HEATING:WATER,PERIMETER_BOT_ZN_1 FOURPIPEFANCOIL HEATING COIL,PERIMETER_BOT_ZN_1 FOURPIPEFANCOIL HEATING COIL_WATER_INLET,PERIMETER_BOT_ZN_1 FOURPIPEFANCOIL HEATING COIL_WATER_OUTLET,Water Nodes
 Component Set,64,BRANCH,TEST HOT WATER LOOP DEMAND BRANCH 9,COIL:HEATING:WATER,PERIMETER_BOT_ZN_4 FOURPIPEFANCOIL HEATING COIL,PERIMETER_BOT_ZN_4 FOURPIPEFANCOIL HEATING COIL_WATER_INLET,PERIMETER_BOT_ZN_4 FOURPIPEFANCOIL HEATING COIL_WATER_OUTLET,Water Nodes
 Component Set,65,BRANCH,TEST HOT WATER LOOP DEMAND BRANCH 10,COIL:HEATING:WATER,DATACENTER_BOT_ZN_6 FOURPIPEFANCOIL HEATING COIL,DATACENTER_BOT_ZN_6 FOURPIPEFANCOIL HEATING COIL_WATER_INLET,DATACENTER_BOT_ZN_6 FOURPIPEFANCOIL HEATING COIL_WATER_OUTLET,Water Nodes
 Component Set,66,BRANCH,TEST HOT WATER LOOP DEMAND BRANCH 11,COIL:HEATING:WATER,AHU HEATING COIL MID,AHU HEATING COIL MID_WATER_INLET,AHU HEATING COIL MID_WATER_OUTLET,Water Nodes
 Component Set,67,BRANCH,TEST HOT WATER LOOP DEMAND BRANCH 12,COIL:HEATING:WATER,CORE_MID FOURPIPEFANCOIL HEATING COIL,CORE_MID FOURPIPEFANCOIL HEATING COIL_WATER_INLET,CORE_MID FOURPIPEFANCOIL HEATING COIL_WATER_OUTLET,Water Nodes
 Component Set,68,BRANCH,TEST HOT WATER LOOP DEMAND BRANCH 13,COIL:HEATING:WATER,PERIMETER_MID_ZN_3 FOURPIPEFANCOIL HEATING COIL,PERIMETER_MID_ZN_3 FOURPIPEFANCOIL HEATING COIL_WATER_INLET,PERIMETER_MID_ZN_3 FOURPIPEFANCOIL HEATING COIL_WATER_OUTLET,Water Nodes
 Component Set,69,BRANCH,TEST HOT WATER LOOP DEMAND BRANCH 14,COIL:HEATING:WATER,PERIMETER_MID_ZN_2 FOURPIPEFANCOIL HEATING COIL,PERIMETER_MID_ZN_2 FOURPIPEFANCOIL HEATING COIL_WATER_INLET,PERIMETER_MID_ZN_2 FOURPIPEFANCOIL HEATING COIL_WATER_OUTLET,Water Nodes
 Component Set,70,BRANCH,TEST HOT WATER LOOP DEMAND BRANCH 15,COIL:HEATING:WATER,PERIMETER_MID_ZN_1 FOURPIPEFANCOIL HEATING COIL,PERIMETER_MID_ZN_1 FOURPIPEFANCOIL HEATING COIL_WATER_INLET,PERIMETER_MID_ZN_1 FOURPIPEFANCOIL HEATING COIL_WATER_OUTLET,Water Nodes
 Component Set,71,BRANCH,TEST HOT WATER LOOP DEMAND BRANCH 16,COIL:HEATING:WATER,PERIMETER_MID_ZN_4 FOURPIPEFANCOIL HEATING COIL,PERIMETER_MID_ZN_4 FOURPIPEFANCOIL HEATING COIL_WATER_INLET,PERIMETER_MID_ZN_4 FOURPIPEFANCOIL HEATING COIL_WATER_OUTLET,Water Nodes
 Component Set,72,BRANCH,TEST HOT WATER LOOP DEMAND BRANCH 17,COIL:HEATING:WATER,DATACENTER_MID_ZN_6 FOURPIPEFANCOIL HEATING COIL,DATACENTER_MID_ZN_6 FOURPIPEFANCOIL HEATING COIL_WATER_INLET,DATACENTER_MID_ZN_6 FOURPIPEFANCOIL HEATING COIL_WATER_OUTLET,Water Nodes
 Component Set,73,BRANCH,TEST HOT WATER LOOP DEMAND BRANCH 18,COIL:HEATING:WATER,AHU HEATING COIL TOP,AHU HEATING COIL TOP_WATER_INLET,AHU HEATING COIL TOP_WATER_OUTLET,Water Nodes
 Component Set,74,BRANCH,TEST HOT WATER LOOP DEMAND BRANCH 19,COIL:HEATING:WATER,CORE_TOP FOURPIPEFANCOIL HEATING COIL,CORE_TOP FOURPIPEFANCOIL HEATING COIL_WATER_INLET,CORE_TOP FOURPIPEFANCOIL HEATING COIL_WATER_OUTLET,Water Nodes
 Component Set,75,BRANCH,TEST HOT WATER LOOP DEMAND BRANCH 20,COIL:HEATING:WATER,PERIMETER_TOP_ZN_3 FOURPIPEFANCOIL HEATING COIL,PERIMETER_TOP_ZN_3 FOURPIPEFANCOIL HEATING COIL_WATER_INLET,PERIMETER_TOP_ZN_3 FOURPIPEFANCOIL HEATING COIL_WATER_OUTLET,Water Nodes
 Component Set,76,BRANCH,TEST HOT WATER LOOP DEMAND BRANCH 21,COIL:HEATING:WATER,PERIMETER_TOP_ZN_2 FOURPIPEFANCOIL HEATING COIL,PERIMETER_TOP_ZN_2 FOURPIPEFANCOIL HEATING COIL_WATER_INLET,PERIMETER_TOP_ZN_2 FOURPIPEFANCOIL HEATING COIL_WATER_OUTLET,Water Nodes
 Component Set,77,BRANCH,TEST HOT WATER LOOP DEMAND BRANCH 22,COIL:HEATING:WATER,PERIMETER_TOP_ZN_1 FOURPIPEFANCOIL HEATING COIL,PERIMETER_TOP_ZN_1 FOURPIPEFANCOIL HEATING COIL_WATER_INLET,PERIMETER_TOP_ZN_1 FOURPIPEFANCOIL HEATING COIL_WATER_OUTLET,Water Nodes
 Component Set,78,BRANCH,TEST HOT WATER LOOP DEMAND BRANCH 23,COIL:HEATING:WATER,PERIMETER_TOP_ZN_4 FOURPIPEFANCOIL HEATING COIL,PERIMETER_TOP_ZN_4 FOURPIPEFANCOIL HEATING COIL_WATER_INLET,PERIMETER_TOP_ZN_4 FOURPIPEFANCOIL HEATING COIL_WATER_OUTLET,Water Nodes
 Component Set,79,BRANCH,TEST HOT WATER LOOP DEMAND BRANCH 24,COIL:HEATING:WATER,DATACENTER_TOP_ZN_6 FOURPIPEFANCOIL HEATING COIL,DATACENTER_TOP_ZN_6 FOURPIPEFANCOIL HEATING COIL_WATER_INLET,DATACENTER_TOP_ZN_6 FOURPIPEFANCOIL HEATING COIL_WATER_OUTLET,Water Nodes
 Component Set,80,BRANCH,TEST HOT WATER LOOP DEMAND OUTLET BRANCH,PIPE:ADIABATIC,TEST HOT WATER LOOP DEMAND OUTLET BRANCH PIPE,TEST HOT WATER LOOP DEMAND OUTLET BRANCH PIPE_INLET,TEST HOT WATER LOOP DEMAND OUTLET,Pipe Nodes
 Component Set,81,ZONEHVAC:AIRDISTRIBUTIONUNIT,BASEMENT AIR DISTRIBUTION UNIT,AIRTERMINAL:SINGLEDUCT:VAV:NOREHEAT,BASEMENT TERMINAL,BASEMENT TERMINAL INLET,BASEMENT TERMINAL OUTLET,Air Nodes
 Component Set,82,ZONEHVAC:AIRDISTRIBUTIONUNIT,DATACENTER_BASEMENT_ZN_6 AIR DISTRIBUTION UNIT,AIRTERMINAL:SINGLEDUCT:VAV:NOREHEAT,DATACENTER_BASEMENT_ZN_6 TERMINAL,DATACENTER_BASEMENT_ZN_6 TERMINAL INLET,DATACENTER_BASEMENT_ZN_6 TERMINAL OUTLET,Air Nodes
 Component Set,83,ZONEHVAC:AIRDISTRIBUTIONUNIT,CORE_BOTTOM AIR DISTRIBUTION UNIT,AIRTERMINAL:SINGLEDUCT:VAV:NOREHEAT,CORE_BOTTOM TERMINAL,CORE_BOTTOM TERMINAL INLET,CORE_BOTTOM TERMINAL OUTLET,Air Nodes
[...]
 Non-Parent Node Connection,DATACENTER_MID_ZN_6 FOURPIPEFANCOIL COOLING COIL COIL OUTLET NODE,COIL:COOLING:WATER,DATACENTER_MID_ZN_6 FOURPIPEFANCOIL COOLING COIL,Outlet,1
 Non-Parent Node Connection,AHU COOLING COIL TOP_WATER_INLET,COIL:COOLING:WATER,AHU COOLING COIL TOP,Inlet,2
 Non-Parent Node Connection,AHU COOLING COIL TOP_WATER_OUTLET,COIL:COOLING:WATER,AHU COOLING COIL TOP,Outlet,2
 Non-Parent Node Connection,DOAS SYSTEM TOP OUTDOOR AIR SYSTEM CONTROLLER MIXED_AIR,COIL:COOLING:WATER,AHU COOLING COIL TOP,Inlet,1
 Non-Parent Node Connection,AHU COOLING COIL TOP_AIR_OUTLET,COIL:COOLING:WATER,AHU COOLING COIL TOP,Outlet,1
 Non-Parent Node Connection,CORE_TOP FOURPIPEFANCOIL COOLING COIL_WATER_INLET,COIL:COOLING:WATER,CORE_TOP FOURPIPEFANCOIL COOLING COIL,Inlet,2
 Non-Parent Node Connection,CORE_TOP FOURPIPEFANCOIL COOLING COIL_WATER_OUTLET,COIL:COOLING:WATER,CORE_TOP FOURPIPEFANCOIL COOLING COIL,Outlet,2
 Non-Parent Node Connection,CORE_TOP FOURPIPEFANCOIL CONST SPEED FAN FAN OUTLET NODE,COIL:COOLING:WATER,CORE_TOP FOURPIPEFANCOIL COOLING COIL,Inlet,1
 Non-Parent Node Connection,CORE_TOP FOURPIPEFANCOIL COOLING COIL COIL OUTLET NODE,COIL:COOLING:WATER,CORE_TOP FOURPIPEFANCOIL COOLING COIL,Outlet,1
 Non-Parent Node Connection,PERIMETER_TOP_ZN_3 FOURPIPEFANCOIL COOLING COIL_WATER_INLET,COIL:COOLING:WATER,PERIMETER_TOP_ZN_3 FOURPIPEFANCOIL COOLING COIL,Inlet,2
 Non-Parent Node Connection,PERIMETER_TOP_ZN_3 FOURPIPEFANCOIL COOLING COIL_WATER_OUTLET,COIL:COOLING:WATER,PERIMETER_TOP_ZN_3 FOURPIPEFANCOIL COOLING COIL,Outlet,2
 Non-Parent Node Connection,PERIMETER_TOP_ZN_3 FOURPIPEFANCOIL CONST SPEED FAN FAN OUTLET NODE,COIL:COOLING:WATER,PERIMETER_TOP_ZN_3 FOURPIPEFANCOIL COOLING COIL,Inlet,1
 Non-Parent Node Connection,PERIMETER_TOP_ZN_3 FOURPIPEFANCOIL COOLING COIL COIL OUTLET NODE,COIL:COOLING:WATER,PERIMETER_TOP_ZN_3 FOURPIPEFANCOIL COOLING COIL,Outlet,1
 Non-Parent Node Connection,PERIMETER_TOP_ZN_2 FOURPIPEFANCOIL COOLING COIL_WATER_INLET,COIL:COOLING:WATER,PERIMETER_TOP_ZN_2 FOURPIPEFANCOIL COOLING COIL,Inlet,2
 Non-Parent Node Connection,PERIMETER_TOP_ZN_2 FOURPIPEFANCOIL COOLING COIL_WATER_OUTLET,COIL:COOLING:WATER,PERIMETER_TOP_ZN_2 FOURPIPEFANCOIL COOLING COIL,Outlet,2
 Non-Parent Node Connection,PERIMETER_TOP_ZN_2 FOURPIPEFANCOIL CONST SPEED FAN FAN OUTLET NODE,COIL:COOLING:WATER,PERIMETER_TOP_ZN_2 FOURPIPEFANCOIL COOLING COIL,Inlet,1
 Non-Parent Node Connection,PERIMETER_TOP_ZN_2 FOURPIPEFANCOIL COOLING COIL COIL OUTLET NODE,COIL:COOLING:WATER,PERIMETER_TOP_ZN_2 FOURPIPEFANCOIL COOLING COIL,Outlet,1
 Non-Parent Node Connection,PERIMETER_TOP_ZN_1 FOURPIPEFANCOIL COOLING COIL_WATER_INLET,COIL:COOLING:WATER,PERIMETER_TOP_ZN_1 FOURPIPEFANCOIL COOLING COIL,Inlet,2
 Non-Parent Node Connection,PERIMETER_TOP_ZN_1 FOURPIPEFANCOIL COOLING COIL_WATER_OUTLET,COIL:COOLING:WATER,PERIMETER_TOP_ZN_1 FOURPIPEFANCOIL COOLING COIL,Outlet,2
 Non-Parent Node Connection,PERIMETER_TOP_ZN_1 FOURPIPEFANCOIL CONST SPEED FAN FAN OUTLET NODE,COIL:COOLING:WATER,PERIMETER_TOP_ZN_1 FOURPIPEFANCOIL COOLING COIL,Inlet,1
 Non-Parent Node Connection,PERIMETER_TOP_ZN_1 FOURPIPEFANCOIL COOLING COIL COIL OUTLET NODE,COIL:COOLING:WATER,PERIMETER_TOP_ZN_1 FOURPIPEFANCOIL COOLING COIL,Outlet,1
 Non-Parent Node Connection,PERIMETER_TOP_ZN_4 FOURPIPEFANCOIL COOLING COIL_WATER_INLET,COIL:COOLING:WATER,PERIMETER_TOP_ZN_4 FOURPIPEFANCOIL COOLING COIL,Inlet,2
 Non-Parent Node Connection,PERIMETER_TOP_ZN_4 FOURPIPEFANCOIL COOLING COIL_WATER_OUTLET,COIL:COOLING:WATER,PERIMETER_TOP_ZN_4 FOURPIPEFANCOIL COOLING COIL,Outlet,2
 Non-Parent Node Connection,PERIMETER_TOP_ZN_4 FOURPIPEFANCOIL CONST SPEED FAN FAN OUTLET NODE,COIL:COOLING:WATER,PERIMETER_TOP_ZN_4 FOURPIPEFANCOIL COOLING COIL,Inlet,1
 Non-Parent Node Connection,PERIMETER_TOP_ZN_4 FOURPIPEFANCOIL COOLING COIL COIL OUTLET NODE,COIL:COOLING:WATER,PERIMETER_TOP_ZN_4 FOURPIPEFANCOIL COOLING COIL,Outlet,1
 Non-Parent Node Connection,DATACENTER_TOP_ZN_6 FOURPIPEFANCOIL COOLING COIL_WATER_INLET,COIL:COOLING:WATER,DATACENTER_TOP_ZN_6 FOURPIPEFANCOIL COOLING COIL,Inlet,2
 Non-Parent Node Connection,DATACENTER_TOP_ZN_6 FOURPIPEFANCOIL COOLING COIL_WATER_OUTLET,COIL:COOLING:WATER,DATACENTER_TOP_ZN_6 FOURPIPEFANCOIL COOLING COIL,Outlet,2
 Non-Parent Node Connection,DATACENTER_TOP_ZN_6 FOURPIPEFANCOIL CONST SPEED FAN FAN OUTLET NODE,COIL:COOLING:WATER,DATACENTER_TOP_ZN_6 FOURPIPEFANCOIL COOLING COIL,Inlet,1
 Non-Parent Node Connection,DATACENTER_TOP_ZN_6 FOURPIPEFANCOIL COOLING COIL COIL OUTLET NODE,COIL:COOLING:WATER,DATACENTER_TOP_ZN_6 FOURPIPEFANCOIL COOLING COIL,Outlet,1
 Non-Parent Node Connection,BASEMENT FOURPIPEFANCOIL OA MIXER MIXED AIR NODE,FAN:CONSTANTVOLUME,BASEMENT FOURPIPEFANCOIL CONST SPEED FAN,Inlet,1
 Non-Parent Node Connection,BASEMENT FOURPIPEFANCOIL CONST SPEED FAN FAN OUTLET NODE,FAN:CONSTANTVOLUME,BASEMENT FOURPIPEFANCOIL CONST SPEED FAN,Outlet,1
 Non-Parent Node Connection,DATACENTER_BASEMENT_ZN_6 FOURPIPEFANCOIL OA MIXER MIXED AIR NODE,FAN:CONSTANTVOLUME,DATACENTER_BASEMENT_ZN_6 FOURPIPEFANCOIL CONST SPEED FAN,Inlet,1
 Non-Parent Node Connection,DATACENTER_BASEMENT_ZN_6 FOURPIPEFANCOIL CONST SPEED FAN FAN OUTLET NODE,FAN:CONSTANTVOLUME,DATACENTER_BASEMENT_ZN_6 FOURPIPEFANCOIL CONST SPEED FAN,Outlet,1
 Non-Parent Node Connection,CORE_BOTTOM FOURPIPEFANCOIL OA MIXER MIXED AIR NODE,FAN:CONSTANTVOLUME,CORE_BOTTOM FOURPIPEFANCOIL CONST SPEED FAN,Inlet,1
 Non-Parent Node Connection,CORE_BOTTOM FOURPIPEFANCOIL CONST SPEED FAN FAN OUTLET NODE,FAN:CONSTANTVOLUME,CORE_BOTTOM FOURPIPEFANCOIL CONST SPEED FAN,Outlet,1
 Non-Parent Node Connection,PERIMETER_BOT_ZN_3 FOURPIPEFANCOIL OA MIXER MIXED AIR NODE,FAN:CONSTANTVOLUME,PERIMETER_BOT_ZN_3 FOURPIPEFANCOIL CONST SPEED FAN,Inlet,1
 Non-Parent Node Connection,PERIMETER_BOT_ZN_3 FOURPIPEFANCOIL CONST SPEED FAN FAN OUTLET NODE,FAN:CONSTANTVOLUME,PERIMETER_BOT_ZN_3 FOURPIPEFANCOIL CONST SPEED FAN,Outlet,1
 Non-Parent Node Connection,PERIMETER_BOT_ZN_2 FOURPIPEFANCOIL OA MIXER MIXED AIR NODE,FAN:CONSTANTVOLUME,PERIMETER_BOT_ZN_2 FOURPIPEFANCOIL CONST SPEED FAN,Inlet,1
 Non-Parent Node Connection,PERIMETER_BOT_ZN_2 FOURPIPEFANCOIL CONST SPEED FAN FAN OUTLET NODE,FAN:CONSTANTVOLUME,PERIMETER_BOT_ZN_2 FOURPIPEFANCOIL CONST SPEED FAN,Outlet,1
 Non-Parent Node Connection,PERIMETER_BOT_ZN_1 FOURPIPEFANCOIL OA MIXER MIXED AIR NODE,FAN:CONSTANTVOLUME,PERIMETER_BOT_ZN_1 FOURPIPEFANCOIL CONST SPEED FAN,Inlet,1
 Non-Parent Node Connection,PERIMETER_BOT_ZN_1 FOURPIPEFANCOIL CONST SPEED FAN FAN OUTLET NODE,FAN:CONSTANTVOLUME,PERIMETER_BOT_ZN_1 FOURPIPEFANCOIL CONST SPEED FAN,Outlet,1
 Non-Parent Node Connection,PERIMETER_BOT_ZN_4 FOURPIPEFANCOIL OA MIXER MIXED AIR NODE,FAN:CONSTANTVOLUME,PERIMETER_BOT_ZN_4 FOURPIPEFANCOIL CONST SPEED FAN,Inlet,1
 Non-Parent Node Connection,PERIMETER_BOT_ZN_4 FOURPIPEFANCOIL CONST SPEED FAN FAN OUTLET NODE,FAN:CONSTANTVOLUME,PERIMETER_BOT_ZN_4 FOURPIPEFANCOIL CONST SPEED FAN,Outlet,1
 Non-Parent Node Connection,DATACENTER_BOT_ZN_6 FOURPIPEFANCOIL OA MIXER MIXED AIR NODE,FAN:CONSTANTVOLUME,DATACENTER_BOT_ZN_6 FOURPIPEFANCOIL CONST SPEED FAN,Inlet,1
 Non-Parent Node Connection,DATACENTER_BOT_ZN_6 FOURPIPEFANCOIL CONST SPEED FAN FAN OUTLET NODE,FAN:CONSTANTVOLUME,DATACENTER_BOT_ZN_6 FOURPIPEFANCOIL CONST SPEED FAN,Outlet,1
 Non-Parent Node Connection,CORE_MID FOURPIPEFANCOIL OA MIXER MIXED AIR NODE,FAN:CONSTANTVOLUME,CORE_MID FOURPIPEFANCOIL CONST SPEED FAN,Inlet,1
 Non-Parent Node Connection,CORE_MID FOURPIPEFANCOIL CONST SPEED FAN FAN OUTLET NODE,FAN:CONSTANTVOLUME,CORE_MID FOURPIPEFANCOIL CONST SPEED FAN,Outlet,1
 Non-Parent Node Connection,PERIMETER_MID_ZN_3 FOURPIPEFANCOIL OA MIXER MIXED AIR NODE,FAN:CONSTANTVOLUME,PERIMETER_MID_ZN_3 FOURPIPEFANCOIL CONST SPEED FAN,Inlet,1
 Non-Parent Node Connection,PERIMETER_MID_ZN_3 FOURPIPEFANCOIL CONST SPEED FAN FAN OUTLET NODE,FAN:CONSTANTVOLUME,PERIMETER_MID_ZN_3 FOURPIPEFANCOIL CONST SPEED FAN,Outlet,1
 Non-Parent Node Connection,PERIMETER_MID_ZN_2 FOURPIPEFANCOIL OA MIXER MIXED AIR NODE,FAN:CONSTANTVOLUME,PERIMETER_MID_ZN_2 FOURPIPEFANCOIL CONST SPEED FAN,Inlet,1
 Non-Parent Node Connection,PERIMETER_MID_ZN_2 FOURPIPEFANCOIL CONST SPEED FAN FAN OUTLET NODE,FAN:CONSTANTVOLUME,PERIMETER_MID_ZN_2 FOURPIPEFANCOIL CONST SPEED FAN,Outlet,1
 Non-Parent Node Connection,PERIMETER_MID_ZN_1 FOURPIPEFANCOIL OA MIXER MIXED AIR NODE,FAN:CONSTANTVOLUME,PERIMETER_MID_ZN_1 FOURPIPEFANCOIL CONST SPEED FAN,Inlet,1
 Non-Parent Node Connection,PERIMETER_MID_ZN_1 FOURPIPEFANCOIL CONST SPEED FAN FAN OUTLET NODE,FAN:CONSTANTVOLUME,PERIMETER_MID_ZN_1 FOURPIPEFANCOIL CONST SPEED FAN,Outlet,1
 Non-Parent Node Connection,PERIMETER_MID_ZN_4 FOURPIPEFANCOIL OA MIXER MIXED AIR NODE,FAN:CONSTANTVOLUME,PERIMETER_MID_ZN_4 FOURPIPEFANCOIL CONST SPEED FAN,Inlet,1
 Non-Parent Node Connection,PERIMETER_MID_ZN_4 FOURPIPEFANCOIL CONST SPEED FAN FAN OUTLET NODE,FAN:CONSTANTVOLUME,PERIMETER_MID_ZN_4 FOURPIPEFANCOIL CONST SPEED FAN,Outlet,1
 Non-Parent Node Connection,DATACENTER_MID_ZN_6 FOURPIPEFANCOIL OA MIXER MIXED AIR NODE,FAN:CONSTANTVOLUME,DATACENTER_MID_ZN_6 FOURPIPEFANCOIL CONST SPEED FAN,Inlet,1
 Non-Parent Node Connection,DATACENTER_MID_ZN_6 FOURPIPEFANCOIL CONST SPEED FAN FAN OUTLET NODE,FAN:CONSTANTVOLUME,DATACENTER_MID_ZN_6 FOURPIPEFANCOIL CONST SPEED FAN,Outlet,1
 Non-Parent Node Connection,CORE_TOP FOURPIPEFANCOIL OA MIXER MIXED AIR NODE,FAN:CONSTANTVOLUME,CORE_TOP FOURPIPEFANCOIL CONST SPEED FAN,Inlet,1
 Non-Parent Node Connection,CORE_TOP FOURPIPEFANCOIL CONST SPEED FAN FAN OUTLET NODE,FAN:CONSTANTVOLUME,CORE_TOP FOURPIPEFANCOIL CONST SPEED FAN,Outlet,1
 Non-Parent Node Connection,PERIMETER_TOP_ZN_3 FOURPIPEFANCOIL OA MIXER MIXED AIR NODE,FAN:CONSTANTVOLUME,PERIMETER_TOP_ZN_3 FOURPIPEFANCOIL CONST SPEED FAN,Inlet,1
 Non-Parent Node Connection,PERIMETER_TOP_ZN_3 FOURPIPEFANCOIL CONST SPEED FAN FAN OUTLET NODE,FAN:CONSTANTVOLUME,PERIMETER_TOP_ZN_3 FOURPIPEFANCOIL CONST SPEED FAN,Outlet,1
 Non-Parent Node Connection,PERIMETER_TOP_ZN_2 FOURPIPEFANCOIL OA MIXER MIXED AIR NODE,FAN:CONSTANTVOLUME,PERIMETER_TOP_ZN_2 FOURPIPEFANCOIL CONST SPEED FAN,Inlet,1
 Non-Parent Node Connection,PERIMETER_TOP_ZN_2 FOURPIPEFANCOIL CONST SPEED FAN FAN OUTLET NODE,FAN:CONSTANTVOLUME,PERIMETER_TOP_ZN_2 FOURPIPEFANCOIL CONST SPEED FAN,Outlet,1
 Non-Parent Node Connection,PERIMETER_TOP_ZN_1 FOURPIPEFANCOIL OA MIXER MIXED AIR NODE,FAN:CONSTANTVOLUME,PERIMETER_TOP_ZN_1 FOURPIPEFANCOIL CONST SPEED FAN,Inlet,1
 Non-Parent Node Connection,PERIMETER_TOP_ZN_1 FOURPIPEFANCOIL CONST SPEED FAN FAN OUTLET NODE,FAN:CONSTANTVOLUME,PERIMETER_TOP_ZN_1 FOURPIPEFANCOIL CONST SPEED FAN,Outlet,1
 Non-Parent Node Connection,PERIMETER_TOP_ZN_4 FOURPIPEFANCOIL OA MIXER MIXED AIR NODE,FAN:CONSTANTVOLUME,PERIMETER_TOP_ZN_4 FOURPIPEFANCOIL CONST SPEED FAN,Inlet,1
 Non-Parent Node Connection,PERIMETER_TOP_ZN_4 FOURPIPEFANCOIL CONST SPEED FAN FAN OUTLET NODE,FAN:CONSTANTVOLUME,PERIMETER_TOP_ZN_4 FOURPIPEFANCOIL CONST SPEED FAN,Outlet,1
 Non-Parent Node Connection,DATACENTER_TOP_ZN_6 FOURPIPEFANCOIL OA MIXER MIXED AIR NODE,FAN:CONSTANTVOLUME,DATACENTER_TOP_ZN_6 FOURPIPEFANCOIL CONST SPEED FAN,Inlet,1
 Non-Parent Node Connection,DATACENTER_TOP_ZN_6 FOURPIPEFANCOIL CONST SPEED FAN FAN OUTLET NODE,FAN:CONSTANTVOLUME,DATACENTER_TOP_ZN_6 FOURPIPEFANCOIL CONST SPEED FAN,Outlet,1
 Non-Parent Node Connection,FAN OTHER AIR INLET,FAN:VARIABLEVOLUME,FAN OTHER,Inlet,1
 Non-Parent Node Connection,DOAS SYSTEM OTHER SUPPLY OUTLET NODE,FAN:VARIABLEVOLUME,FAN OTHER,Outlet,1
 Non-Parent Node Connection,FAN BOT AIR INLET,FAN:VARIABLEVOLUME,FAN BOT,Inlet,1
 Non-Parent Node Connection,DOAS SYSTEM BOT SUPPLY OUTLET NODE,FAN:VARIABLEVOLUME,FAN BOT,Outlet,1
 Non-Parent Node Connection,FAN MID AIR INLET,FAN:VARIABLEVOLUME,FAN MID,Inlet,1
 Non-Parent Node Connection,DOAS SYSTEM MID SUPPLY OUTLET NODE,FAN:VARIABLEVOLUME,FAN MID,Outlet,1
 Non-Parent Node Connection,FAN TOP AIR INLET,FAN:VARIABLEVOLUME,FAN TOP,Inlet,1
 Non-Parent Node Connection,DOAS SYSTEM TOP SUPPLY OUTLET NODE,FAN:VARIABLEVOLUME,FAN TOP,Outlet,1
 Non-Parent Node Connection,AHU COOLING COIL OTHER_AIR_OUTLET,CONTROLLER:WATERCOIL,AHU COOLING COIL OTHER CONTROLLER,Sensor,1
 Non-Parent Node Connection,AHU COOLING COIL OTHER_WATER_INLET,CONTROLLER:WATERCOIL,AHU COOLING COIL OTHER CONTROLLER,Actuator,1
 Non-Parent Node Connection,FAN OTHER AIR INLET,CONTROLLER:WATERCOIL,AHU HEATING COIL OTHER CONTROLLER,Sensor,1
 Non-Parent Node Connection,AHU HEATING COIL OTHER_WATER_INLET,CONTROLLER:WATERCOIL,AHU HEATING COIL OTHER CONTROLLER,Actuator,1
 Non-Parent Node Connection,AHU COOLING COIL BOT_AIR_OUTLET,CONTROLLER:WATERCOIL,AHU COOLING COIL BOT CONTROLLER,Sensor,1
 Non-Parent Node Connection,AHU COOLING COIL BOT_WATER_INLET,CONTROLLER:WATERCOIL,AHU COOLING COIL BOT CONTROLLER,Actuator,1
 Non-Parent Node Connection,FAN BOT AIR INLET,CONTROLLER:WATERCOIL,AHU HEATING COIL BOT CONTROLLER,Sensor,1
 Non-Parent Node Connection,AHU HEATING COIL BOT_WATER_INLET,CONTROLLER:WATERCOIL,AHU HEATING COIL BOT CONTROLLER,Actuator,1
 Non-Parent Node Connection,AHU COOLING COIL MID_AIR_OUTLET,CONTROLLER:WATERCOIL,AHU COOLING COIL MID CONTROLLER,Sensor,1
 Non-Parent Node Connection,AHU COOLING COIL MID_WATER_INLET,CONTROLLER:WATERCOIL,AHU COOLING COIL MID CONTROLLER,Actuator,1
 Non-Parent Node Connection,FAN MID AIR INLET,CONTROLLER:WATERCOIL,AHU HEATING COIL MID CONTROLLER,Sensor,1
 Non-Parent Node Connection,AHU HEATING COIL MID_WATER_INLET,CONTROLLER:WATERCOIL,AHU HEATING COIL MID CONTROLLER,Actuator,1
 Non-Parent Node Connection,AHU COOLING COIL TOP_AIR_OUTLET,CONTROLLER:WATERCOIL,AHU COOLING COIL TOP CONTROLLER,Sensor,1
 Non-Parent Node Connection,AHU COOLING COIL TOP_WATER_INLET,CONTROLLER:WATERCOIL,AHU COOLING COIL TOP CONTROLLER,Actuator,1
 Non-Parent Node Connection,FAN TOP AIR INLET,CONTROLLER:WATERCOIL,AHU HEATING COIL TOP CONTROLLER,Sensor,1
 Non-Parent Node Connection,AHU HEATING COIL TOP_WATER_INLET,CONTROLLER:WATERCOIL,AHU HEATING COIL TOP CONTROLLER,Actuator,1
 Non-Parent Node Connection,DOAS SYSTEM OTHER DEMAND OUTLET NODE,AIRLOOPHVAC:ZONEMIXER,DOAS SYSTEM OTHER ZONE MIXER,Outlet,1
 Non-Parent Node Connection,BASEMENT RETURN AIR INLET,AIRLOOPHVAC:ZONEMIXER,DOAS SYSTEM OTHER ZONE MIXER,Inlet,1
 Non-Parent Node Connection,DATACENTER_BASEMENT_ZN_6 RETURN AIR INLET,AIRLOOPHVAC:ZONEMIXER,DOAS SYSTEM OTHER ZONE MIXER,Inlet,1
 Non-Parent Node Connection,DOAS SYSTEM BOT DEMAND OUTLET NODE,AIRLOOPHVAC:ZONEMIXER,DOAS SYSTEM BOT ZONE MIXER,Outlet,1
 Non-Parent Node Connection,CORE_BOTTOM RETURN AIR INLET,AIRLOOPHVAC:ZONEMIXER,DOAS SYSTEM BOT ZONE MIXER,Inlet,1
 Non-Parent Node Connection,PERIMETER_BOT_ZN_3 RETURN AIR INLET,AIRLOOPHVAC:ZONEMIXER,DOAS SYSTEM BOT ZONE MIXER,Inlet,1
 Non-Parent Node Connection,PERIMETER_BOT_ZN_2 RETURN AIR INLET,AIRLOOPHVAC:ZONEMIXER,DOAS SYSTEM BOT ZONE MIXER,Inlet,1
 Non-Parent Node Connection,PERIMETER_BOT_ZN_1 RETURN AIR INLET,AIRLOOPHVAC:ZONEMIXER,DOAS SYSTEM BOT ZONE MIXER,Inlet,1
 Non-Parent Node Connection,PERIMETER_BOT_ZN_4 RETURN AIR INLET,AIRLOOPHVAC:ZONEMIXER,DOAS SYSTEM BOT ZONE MIXER,Inlet,1
 Non-Parent Node Connection,DATACENTER_BOT_ZN_6 RETURN AIR INLET,AIRLOOPHVAC:ZONEMIXER,DOAS SYSTEM BOT ZONE MIXER,Inlet,1
 Non-Parent Node Connection,DOAS SYSTEM MID DEMAND OUTLET NODE,AIRLOOPHVAC:ZONEMIXER,DOAS SYSTEM MID ZONE MIXER,Outlet,1
 Non-Parent Node Connection,CORE_MID RETURN AIR INLET,AIRLOOPHVAC:ZONEMIXER,DOAS SYSTEM MID ZONE MIXER,Inlet,1
 Non-Parent Node Connection,PERIMETER_MID_ZN_3 RETURN AIR INLET,AIRLOOPHVAC:ZONEMIXER,DOAS SYSTEM MID ZONE MIXER,Inlet,1
 Non-Parent Node Connection,PERIMETER_MID_ZN_2 RETURN AIR INLET,AIRLOOPHVAC:ZONEMIXER,DOAS SYSTEM MID ZONE MIXER,Inlet,1
 Non-Parent Node Connection,PERIMETER_MID_ZN_1 RETURN AIR INLET,AIRLOOPHVAC:ZONEMIXER,DOAS SYSTEM MID ZONE MIXER,Inlet,1
 Non-Parent Node Connection,PERIMETER_MID_ZN_4 RETURN AIR INLET,AIRLOOPHVAC:ZONEMIXER,DOAS SYSTEM MID ZONE MIXER,Inlet,1
 Non-Parent Node Connection,DATACENTER_MID_ZN_6 RETURN AIR INLET,AIRLOOPHVAC:ZONEMIXER,DOAS SYSTEM MID ZONE MIXER,Inlet,1
 Non-Parent Node Connection,DOAS SYSTEM TOP DEMAND OUTLET NODE,AIRLOOPHVAC:ZONEMIXER,DOAS SYSTEM TOP ZONE MIXER,Outlet,1
 Non-Parent Node Connection,CORE_TOP RETURN AIR INLET,AIRLOOPHVAC:ZONEMIXER,DOAS SYSTEM TOP ZONE MIXER,Inlet,1
 Non-Parent Node Connection,PERIMETER_TOP_ZN_3 RETURN AIR INLET,AIRLOOPHVAC:ZONEMIXER,DOAS SYSTEM TOP ZONE MIXER,Inlet,1
 Non-Parent Node Connection,PERIMETER_TOP_ZN_2 RETURN AIR INLET,AIRLOOPHVAC:ZONEMIXER,DOAS SYSTEM TOP ZONE MIXER,Inlet,1
 Non-Parent Node Connection,PERIMETER_TOP_ZN_1 RETURN AIR INLET,AIRLOOPHVAC:ZONEMIXER,DOAS SYSTEM TOP ZONE MIXER,Inlet,1
 Non-Parent Node Connection,PERIMETER_TOP_ZN_4 RETURN AIR INLET,AIRLOOPHVAC:ZONEMIXER,DOAS SYSTEM TOP ZONE MIXER,Inlet,1
 Non-Parent Node Connection,DATACENTER_TOP_ZN_6 RETURN AIR INLET,AIRLOOPHVAC:ZONEMIXER,DOAS SYSTEM TOP ZONE MIXER,Inlet,1
 Non-Parent Node Connection,DOAS SYSTEM OTHER OUTDOOR AIR SYSTEM CONTROLLER MIXED_AIR,CONTROLLER:OUTDOORAIR,DOAS SYSTEM OTHER OUTDOOR AIR SYSTEM CONTROLLER,Sensor,1
 Non-Parent Node Connection,DOAS SYSTEM OTHER OUTDOOR AIR SYSTEM CONTROLLER OUTDOOR_AIR_INLET,CONTROLLER:OUTDOORAIR,DOAS SYSTEM OTHER OUTDOOR AIR SYSTEM CONTROLLER,Actuator,1
 Non-Parent Node Connection,DOAS SYSTEM OTHER OUTDOOR AIR SYSTEM CONTROLLER RELIEF_AIR_OUTLET,CONTROLLER:OUTDOORAIR,DOAS SYSTEM OTHER OUTDOOR AIR SYSTEM CONTROLLER,Actuator,1
 Non-Parent Node Connection,DOAS SYSTEM OTHER SUPPLY INLET NODE,CONTROLLER:OUTDOORAIR,DOAS SYSTEM OTHER OUTDOOR AIR SYSTEM CONTROLLER,Sensor,1
 Non-Parent Node Connection,DOAS SYSTEM BOT OUTDOOR AIR SYSTEM CONTROLLER MIXED_AIR,CONTROLLER:OUTDOORAIR,DOAS SYSTEM BOT OUTDOOR AIR SYSTEM CONTROLLER,Sensor,1
 Non-Parent Node Connection,DOAS SYSTEM BOT OUTDOOR AIR SYSTEM CONTROLLER OUTDOOR_AIR_INLET,CONTROLLER:OUTDOORAIR,DOAS SYSTEM BOT OUTDOOR AIR SYSTEM CONTROLLER,Actuator,1
 Non-Parent Node Connection,DOAS SYSTEM BOT OUTDOOR AIR SYSTEM CONTROLLER RELIEF_AIR_OUTLET,CONTROLLER:OUTDOORAIR,DOAS SYSTEM BOT OUTDOOR AIR SYSTEM CONTROLLER,Actuator,1
 Non-Parent Node Connection,DOAS SYSTEM BOT SUPPLY INLET NODE,CONTROLLER:OUTDOORAIR,DOAS SYSTEM BOT OUTDOOR AIR SYSTEM CONTROLLER,Sensor,1
 Non-Parent Node Connection,DOAS SYSTEM MID OUTDOOR AIR SYSTEM CONTROLLER MIXED_AIR,CONTROLLER:OUTDOORAIR,DOAS SYSTEM MID OUTDOOR AIR SYSTEM CONTROLLER,Sensor,1
 Non-Parent Node Connection,DOAS SYSTEM MID OUTDOOR AIR SYSTEM CONTROLLER OUTDOOR_AIR_INLET,CONTROLLER:OUTDOORAIR,DOAS SYSTEM MID OUTDOOR AIR SYSTEM CONTROLLER,Actuator,1
 Non-Parent Node Connection,DOAS SYSTEM MID OUTDOOR AIR SYSTEM CONTROLLER RELIEF_AIR_OUTLET,CONTROLLER:OUTDOORAIR,DOAS SYSTEM MID OUTDOOR AIR SYSTEM CONTROLLER,Actuator,1
 Non-Parent Node Connection,DOAS SYSTEM MID SUPPLY INLET NODE,CONTROLLER:OUTDOORAIR,DOAS SYSTEM MID OUTDOOR AIR SYSTEM CONTROLLER,Sensor,1
 Non-Parent Node Connection,DOAS SYSTEM TOP OUTDOOR AIR SYSTEM CONTROLLER MIXED_AIR,CONTROLLER:OUTDOORAIR,DOAS SYSTEM TOP OUTDOOR AIR SYSTEM CONTROLLER,Sensor,1
 Non-Parent Node Connection,DOAS SYSTEM TOP OUTDOOR AIR SYSTEM CONTROLLER OUTDOOR_AIR_INLET,CONTROLLER:OUTDOORAIR,DOAS SYSTEM TOP OUTDOOR AIR SYSTEM CONTROLLER,Actuator,1
 Non-Parent Node Connection,DOAS SYSTEM TOP OUTDOOR AIR SYSTEM CONTROLLER RELIEF_AIR_OUTLET,CONTROLLER:OUTDOORAIR,DOAS SYSTEM TOP OUTDOOR AIR SYSTEM CONTROLLER,Actuator,1
 Non-Parent Node Connection,DOAS SYSTEM TOP SUPPLY INLET NODE,CONTROLLER:OUTDOORAIR,DOAS SYSTEM TOP OUTDOOR AIR SYSTEM CONTROLLER,Sensor,1
 Non-Parent Node Connection,TEST CHILLED WATER LOOP SUPPLY INLET,PUMP:VARIABLESPEED,CHW PUMP,Inlet,1
 Non-Parent Node Connection,CHW PUMP_WATER_OUTLET,PUMP:VARIABLESPEED,CHW PUMP,Outlet,1
 Non-Parent Node Connection,TEST CONDENSER WATER LOOP SUPPLY INLET,PUMP:VARIABLESPEED,CW PUMP,Inlet,1
 Non-Parent Node Connection,CW PUMP_WATER_OUTLET,PUMP:VARIABLESPEED,CW PUMP,Outlet,1
 Non-Parent Node Connection,TEST HOT WATER LOOP SUPPLY INLET,PUMP:VARIABLESPEED,HW PUMP,Inlet,1
 Non-Parent Node Connection,HW PUMP_WATER_OUTLET,PUMP:VARIABLESPEED,HW PUMP,Outlet,1
