Program Version,EnergyPlus, Version 24.2.0-94a887817b, YMD=2025.04.14 16:15
! This file shows details about the branches, nodes, and other
! elements of the flow connections.
! This file is intended for use in "debugging" potential problems
! that may also be detected by the program, but may be more easily
! identified by "eye".
! This file is also intended to support software which draws a
! schematic diagram of the HVAC system.
! ===============================================================
! #Nodes,<Number of Unique Nodes>
 #Nodes,420
! <Node>,<NodeNumber>,<Node Name>,<Node Fluid Type>,<# Times Node Referenced After Definition>
 Node,1,DOAS SYSTEM 0 SUPPLY OUTLET NODE,Air,10
 Node,2,DOAS SYSTEM 0 DEMAND INLET NODE,Air,3
 Node,3,BASEMENT TERMINAL OUTLET,Air,3
 Node,4,BASEMENT FOURPIPEFANCOIL HEATING COIL COIL OUTLET NODE,Air,3
 Node,5,BASEMENT FOURPIPEFANCOIL OA MIXER RETURN AIR NODE,Air,3
 Node,6,BASEMENT RETURN AIR INLET,Air,2
 Node,7,DOAS SYSTEM 1 SUPPLY OUTLET NODE,Air,10
 Node,8,DOAS SYSTEM 1 DEMAND INLET NODE,Air,3
 Node,9,RETAIL_1_FLR_1 TERMINAL OUTLET,Air,3
 Node,10,RETAIL_1_FLR_1 FOURPIPEFANCOIL HEATING COIL COIL OUTLET NODE,Air,3
 Node,11,RETAIL_1_FLR_1 FOURPIPEFANCOIL OA MIXER RETURN AIR NODE,Air,3
 Node,12,RETAIL_1_FLR_1 RETURN AIR INLET,Air,2
 Node,13,RETAIL_2_FLR_1 TERMINAL OUTLET,Air,3
 Node,14,RETAIL_2_FLR_1 FOURPIPEFANCOIL HEATING COIL COIL OUTLET NODE,Air,3
 Node,15,RETAIL_2_FLR_1 FOURPIPEFANCOIL OA MIXER RETURN AIR NODE,Air,3
 Node,16,RETAIL_2_FLR_1 RETURN AIR INLET,Air,2
 Node,17,MECH_FLR_1 TERMINAL OUTLET,Air,3
 Node,18,MECH_FLR_1 FOURPIPEFANCOIL HEATING COIL COIL OUTLET NODE,Air,3
 Node,19,MECH_FLR_1 FOURPIPEFANCOIL OA MIXER RETURN AIR NODE,Air,3
 Node,20,MECH_FLR_1 RETURN AIR INLET,Air,2
 Node,21,STORAGE_FLR_1 TERMINAL OUTLET,Air,3
 Node,22,STORAGE_FLR_1 FOURPIPEFANCOIL HEATING COIL COIL OUTLET NODE,Air,3
 Node,23,STORAGE_FLR_1 FOURPIPEFANCOIL OA MIXER RETURN AIR NODE,Air,3
 Node,24,STORAGE_FLR_1 RETURN AIR INLET,Air,2
 Node,25,LAUNDRY_FLR_1 TERMINAL OUTLET,Air,3
 Node,26,LAUNDRY_FLR_1 FOURPIPEFANCOIL HEATING COIL COIL OUTLET NODE,Air,3
 Node,27,LAUNDRY_FLR_1 FOURPIPEFANCOIL OA MIXER RETURN AIR NODE,Air,3
 Node,28,LAUNDRY_FLR_1 RETURN AIR INLET,Air,2
 Node,29,CAFE_FLR_1 TERMINAL OUTLET,Air,3
 Node,30,CAFE_FLR_1 FOURPIPEFANCOIL HEATING COIL COIL OUTLET NODE,Air,3
 Node,31,CAFE_FLR_1 FOURPIPEFANCOIL OA MIXER RETURN AIR NODE,Air,3
 Node,32,CAFE_FLR_1 RETURN AIR INLET,Air,2
 Node,33,LOBBY_FLR_1 TERMINAL OUTLET,Air,3
 Node,34,LOBBY_FLR_1 FOURPIPEFANCOIL HEATING COIL COIL OUTLET NODE,Air,3
 Node,35,LOBBY_FLR_1 FOURPIPEFANCOIL OA MIXER RETURN AIR NODE,Air,3
 Node,36,LOBBY_FLR_1 RETURN AIR INLET,Air,2
 Node,37,DOAS SYSTEM 3 SUPPLY OUTLET NODE,Air,10
 Node,38,DOAS SYSTEM 3 DEMAND INLET NODE,Air,3
 Node,39,ROOM_1_FLR_3 TERMINAL OUTLET,Air,3
 Node,40,ROOM_1_FLR_3 FOURPIPEFANCOIL HEATING COIL COIL OUTLET NODE,Air,3
 Node,41,ROOM_1_FLR_3 FOURPIPEFANCOIL OA MIXER RETURN AIR NODE,Air,3
 Node,42,ROOM_1_FLR_3 RETURN AIR INLET,Air,2
 Node,43,ROOM_2_FLR_3 TERMINAL OUTLET,Air,3
 Node,44,ROOM_2_FLR_3 FOURPIPEFANCOIL HEATING COIL COIL OUTLET NODE,Air,3
 Node,45,ROOM_2_FLR_3 FOURPIPEFANCOIL OA MIXER RETURN AIR NODE,Air,3
 Node,46,ROOM_2_FLR_3 RETURN AIR INLET,Air,2
 Node,47,ROOM_3_MULT19_FLR_3 TERMINAL OUTLET,Air,3
 Node,48,ROOM_3_MULT19_FLR_3 FOURPIPEFANCOIL HEATING COIL COIL OUTLET NODE,Air,3
 Node,49,ROOM_3_MULT19_FLR_3 FOURPIPEFANCOIL OA MIXER RETURN AIR NODE,Air,3
 Node,50,ROOM_3_MULT19_FLR_3 RETURN AIR INLET,Air,2
 Node,51,ROOM_4_MULT19_FLR_3 TERMINAL OUTLET,Air,3
 Node,52,ROOM_4_MULT19_FLR_3 FOURPIPEFANCOIL HEATING COIL COIL OUTLET NODE,Air,3
 Node,53,ROOM_4_MULT19_FLR_3 FOURPIPEFANCOIL OA MIXER RETURN AIR NODE,Air,3
 Node,54,ROOM_4_MULT19_FLR_3 RETURN AIR INLET,Air,2
 Node,55,ROOM_5_FLR_3 TERMINAL OUTLET,Air,3
 Node,56,ROOM_5_FLR_3 FOURPIPEFANCOIL HEATING COIL COIL OUTLET NODE,Air,3
 Node,57,ROOM_5_FLR_3 FOURPIPEFANCOIL OA MIXER RETURN AIR NODE,Air,3
 Node,58,ROOM_5_FLR_3 RETURN AIR INLET,Air,2
 Node,59,ROOM_6_FLR_3 TERMINAL OUTLET,Air,3
 Node,60,ROOM_6_FLR_3 FOURPIPEFANCOIL HEATING COIL COIL OUTLET NODE,Air,3
 Node,61,ROOM_6_FLR_3 FOURPIPEFANCOIL OA MIXER RETURN AIR NODE,Air,3
 Node,62,ROOM_6_FLR_3 RETURN AIR INLET,Air,2
 Node,63,CORRIDOR_FLR_3 TERMINAL OUTLET,Air,3
 Node,64,CORRIDOR_FLR_3 FOURPIPEFANCOIL HEATING COIL COIL OUTLET NODE,Air,3
 Node,65,CORRIDOR_FLR_3 FOURPIPEFANCOIL OA MIXER RETURN AIR NODE,Air,3
 Node,66,CORRIDOR_FLR_3 RETURN AIR INLET,Air,2
 Node,67,DOAS SYSTEM 6 SUPPLY OUTLET NODE,Air,10
 Node,68,DOAS SYSTEM 6 DEMAND INLET NODE,Air,3
 Node,69,ROOM_1_FLR_6 TERMINAL OUTLET,Air,3
 Node,70,ROOM_1_FLR_6 FOURPIPEFANCOIL HEATING COIL COIL OUTLET NODE,Air,3
 Node,71,ROOM_1_FLR_6 FOURPIPEFANCOIL OA MIXER RETURN AIR NODE,Air,3
 Node,72,ROOM_1_FLR_6 RETURN AIR INLET,Air,2
 Node,73,ROOM_2_FLR_6 TERMINAL OUTLET,Air,3
 Node,74,ROOM_2_FLR_6 FOURPIPEFANCOIL HEATING COIL COIL OUTLET NODE,Air,3
 Node,75,ROOM_2_FLR_6 FOURPIPEFANCOIL OA MIXER RETURN AIR NODE,Air,3
 Node,76,ROOM_2_FLR_6 RETURN AIR INLET,Air,2
 Node,77,ROOM_3_MULT9_FLR_6 TERMINAL OUTLET,Air,3
 Node,78,ROOM_3_MULT9_FLR_6 FOURPIPEFANCOIL HEATING COIL COIL OUTLET NODE,Air,3
 Node,79,ROOM_3_MULT9_FLR_6 FOURPIPEFANCOIL OA MIXER RETURN AIR NODE,Air,3
 Node,80,ROOM_3_MULT9_FLR_6 RETURN AIR INLET,Air,2
 Node,81,BANQUET_FLR_6 TERMINAL OUTLET,Air,3
 Node,82,BANQUET_FLR_6 FOURPIPEFANCOIL HEATING COIL COIL OUTLET NODE,Air,3
 Node,83,BANQUET_FLR_6 FOURPIPEFANCOIL OA MIXER RETURN AIR NODE,Air,3
 Node,84,BANQUET_FLR_6 RETURN AIR INLET,Air,2
 Node,85,DINING_FLR_6 TERMINAL OUTLET,Air,3
 Node,86,DINING_FLR_6 FOURPIPEFANCOIL HEATING COIL COIL OUTLET NODE,Air,3
 Node,87,DINING_FLR_6 FOURPIPEFANCOIL OA MIXER RETURN AIR NODE,Air,3
 Node,88,DINING_FLR_6 RETURN AIR INLET,Air,2
 Node,89,KITCHEN_FLR_6 TERMINAL OUTLET,Air,3
 Node,90,KITCHEN_FLR_6 FOURPIPEFANCOIL HEATING COIL COIL OUTLET NODE,Air,3
 Node,91,KITCHEN_FLR_6 FOURPIPEFANCOIL OA MIXER RETURN AIR NODE,Air,3
 Node,92,KITCHEN_FLR_6 RETURN AIR INLET,Air,2
 Node,93,CORRIDOR_FLR_6 TERMINAL OUTLET,Air,3
 Node,94,CORRIDOR_FLR_6 FOURPIPEFANCOIL HEATING COIL COIL OUTLET NODE,Air,3
 Node,95,CORRIDOR_FLR_6 FOURPIPEFANCOIL OA MIXER RETURN AIR NODE,Air,3
 Node,96,CORRIDOR_FLR_6 RETURN AIR INLET,Air,2
 Node,97,DOAS SYSTEM 0 SUPPLY INLET NODE,Air,3
 Node,98,DOAS SYSTEM 0 OUTDOOR AIR SYSTEM CONTROLLER MIXED_AIR,Air,5
 Node,99,AHU COOLING COIL 0_AIR_OUTLET,Air,6
 Node,100,FAN 0 AIR INLET,Air,8
 Node,101,DOAS SYSTEM 1 SUPPLY INLET NODE,Air,3
 Node,102,DOAS SYSTEM 1 OUTDOOR AIR SYSTEM CONTROLLER MIXED_AIR,Air,5
 Node,103,AHU COOLING COIL 1_AIR_OUTLET,Air,6
 Node,104,FAN 1 AIR INLET,Air,8
 Node,105,DOAS SYSTEM 3 SUPPLY INLET NODE,Air,3
 Node,106,DOAS SYSTEM 3 OUTDOOR AIR SYSTEM CONTROLLER MIXED_AIR,Air,5
 Node,107,AHU COOLING COIL 3_AIR_OUTLET,Air,6
 Node,108,FAN 3 AIR INLET,Air,8
 Node,109,DOAS SYSTEM 6 SUPPLY INLET NODE,Air,3
 Node,110,DOAS SYSTEM 6 OUTDOOR AIR SYSTEM CONTROLLER MIXED_AIR,Air,5
 Node,111,AHU COOLING COIL 6_AIR_OUTLET,Air,6
 Node,112,FAN 6 AIR INLET,Air,8
 Node,113,YMCA CHILLED WATER LOOP SUPPLY INLET,Water,2
 Node,114,YMCA CHILLED WATER LOOP SUPPLY INLET BRANCH PIPE_OUTLET,Water,1
 Node,115,CHW PUMP 1_WATER_INLET,Water,1
 Node,116,CHILLER 1 CHILLED_WATER_INLET,Water,3
 Node,117,CHILLER 1 CHILLED_WATER_OUTLET,Water,1
 Node,118,CHW PUMP 2_WATER_INLET,Water,1
 Node,119,CHILLER 2 CHILLED_WATER_INLET,Water,3
 Node,120,CHILLER 2 CHILLED_WATER_OUTLET,Water,1
 Node,121,YMCA CHILLED WATER LOOP SUPPLY OUTLET BRANCH PIPE_INLET,Water,1
 Node,122,YMCA CHILLED WATER LOOP SUPPLY OUTLET,Water,4
 Node,123,YMCA CHILLED WATER LOOP DEMAND INLET,Water,2
 Node,124,YMCA CHILLED WATER LOOP DEMAND INLET BRANCH PIPE_OUTLET,Water,1
 Node,125,AHU COOLING COIL 0_WATER_INLET,Water,2
 Node,126,AHU COOLING COIL 0_WATER_OUTLET,Water,1
 Node,127,BASEMENT FOURPIPEFANCOIL COOLING COIL_WATER_INLET,Water,1
 Node,128,BASEMENT FOURPIPEFANCOIL COOLING COIL_WATER_OUTLET,Water,1
 Node,129,AHU COOLING COIL 1_WATER_INLET,Water,2
 Node,130,AHU COOLING COIL 1_WATER_OUTLET,Water,1
 Node,131,RETAIL_1_FLR_1 FOURPIPEFANCOIL COOLING COIL_WATER_INLET,Water,1
 Node,132,RETAIL_1_FLR_1 FOURPIPEFANCOIL COOLING COIL_WATER_OUTLET,Water,1
 Node,133,RETAIL_2_FLR_1 FOURPIPEFANCOIL COOLING COIL_WATER_INLET,Water,1
 Node,134,RETAIL_2_FLR_1 FOURPIPEFANCOIL COOLING COIL_WATER_OUTLET,Water,1
 Node,135,MECH_FLR_1 FOURPIPEFANCOIL COOLING COIL_WATER_INLET,Water,1
 Node,136,MECH_FLR_1 FOURPIPEFANCOIL COOLING COIL_WATER_OUTLET,Water,1
 Node,137,STORAGE_FLR_1 FOURPIPEFANCOIL COOLING COIL_WATER_INLET,Water,1
 Node,138,STORAGE_FLR_1 FOURPIPEFANCOIL COOLING COIL_WATER_OUTLET,Water,1
 Node,139,LAUNDRY_FLR_1 FOURPIPEFANCOIL COOLING COIL_WATER_INLET,Water,1
 Node,140,LAUNDRY_FLR_1 FOURPIPEFANCOIL COOLING COIL_WATER_OUTLET,Water,1
 Node,141,CAFE_FLR_1 FOURPIPEFANCOIL COOLING COIL_WATER_INLET,Water,1
 Node,142,CAFE_FLR_1 FOURPIPEFANCOIL COOLING COIL_WATER_OUTLET,Water,1
 Node,143,LOBBY_FLR_1 FOURPIPEFANCOIL COOLING COIL_WATER_INLET,Water,1
 Node,144,LOBBY_FLR_1 FOURPIPEFANCOIL COOLING COIL_WATER_OUTLET,Water,1
 Node,145,AHU COOLING COIL 3_WATER_INLET,Water,2
 Node,146,AHU COOLING COIL 3_WATER_OUTLET,Water,1
 Node,147,ROOM_1_FLR_3 FOURPIPEFANCOIL COOLING COIL_WATER_INLET,Water,1
 Node,148,ROOM_1_FLR_3 FOURPIPEFANCOIL COOLING COIL_WATER_OUTLET,Water,1
 Node,149,ROOM_2_FLR_3 FOURPIPEFANCOIL COOLING COIL_WATER_INLET,Water,1
 Node,150,ROOM_2_FLR_3 FOURPIPEFANCOIL COOLING COIL_WATER_OUTLET,Water,1
 Node,151,ROOM_3_MULT19_FLR_3 FOURPIPEFANCOIL COOLING COIL_WATER_INLET,Water,1
 Node,152,ROOM_3_MULT19_FLR_3 FOURPIPEFANCOIL COOLING COIL_WATER_OUTLET,Water,1
 Node,153,ROOM_4_MULT19_FLR_3 FOURPIPEFANCOIL COOLING COIL_WATER_INLET,Water,1
 Node,154,ROOM_4_MULT19_FLR_3 FOURPIPEFANCOIL COOLING COIL_WATER_OUTLET,Water,1
 Node,155,ROOM_5_FLR_3 FOURPIPEFANCOIL COOLING COIL_WATER_INLET,Water,1
 Node,156,ROOM_5_FLR_3 FOURPIPEFANCOIL COOLING COIL_WATER_OUTLET,Water,1
 Node,157,ROOM_6_FLR_3 FOURPIPEFANCOIL COOLING COIL_WATER_INLET,Water,1
 Node,158,ROOM_6_FLR_3 FOURPIPEFANCOIL COOLING COIL_WATER_OUTLET,Water,1
 Node,159,CORRIDOR_FLR_3 FOURPIPEFANCOIL COOLING COIL_WATER_INLET,Water,1
 Node,160,CORRIDOR_FLR_3 FOURPIPEFANCOIL COOLING COIL_WATER_OUTLET,Water,1
 Node,161,AHU COOLING COIL 6_WATER_INLET,Water,2
 Node,162,AHU COOLING COIL 6_WATER_OUTLET,Water,1
 Node,163,ROOM_1_FLR_6 FOURPIPEFANCOIL COOLING COIL_WATER_INLET,Water,1
 Node,164,ROOM_1_FLR_6 FOURPIPEFANCOIL COOLING COIL_WATER_OUTLET,Water,1
 Node,165,ROOM_2_FLR_6 FOURPIPEFANCOIL COOLING COIL_WATER_INLET,Water,1
 Node,166,ROOM_2_FLR_6 FOURPIPEFANCOIL COOLING COIL_WATER_OUTLET,Water,1
 Node,167,ROOM_3_MULT9_FLR_6 FOURPIPEFANCOIL COOLING COIL_WATER_INLET,Water,1
 Node,168,ROOM_3_MULT9_FLR_6 FOURPIPEFANCOIL COOLING COIL_WATER_OUTLET,Water,1
 Node,169,BANQUET_FLR_6 FOURPIPEFANCOIL COOLING COIL_WATER_INLET,Water,1
 Node,170,BANQUET_FLR_6 FOURPIPEFANCOIL COOLING COIL_WATER_OUTLET,Water,1
 Node,171,DINING_FLR_6 FOURPIPEFANCOIL COOLING COIL_WATER_INLET,Water,1
 Node,172,DINING_FLR_6 FOURPIPEFANCOIL COOLING COIL_WATER_OUTLET,Water,1
 Node,173,KITCHEN_FLR_6 FOURPIPEFANCOIL COOLING COIL_WATER_INLET,Water,1
 Node,174,KITCHEN_FLR_6 FOURPIPEFANCOIL COOLING COIL_WATER_OUTLET,Water,1
 Node,175,CORRIDOR_FLR_6 FOURPIPEFANCOIL COOLING COIL_WATER_INLET,Water,1
 Node,176,CORRIDOR_FLR_6 FOURPIPEFANCOIL COOLING COIL_WATER_OUTLET,Water,1
 Node,177,YMCA CHILLED WATER LOOP DEMAND OUTLET BRANCH PIPE_INLET,Water,1
 Node,178,YMCA CHILLED WATER LOOP DEMAND OUTLET,Water,2
 Node,179,YMCA CONDENSER WATER LOOP SUPPLY INLET,Water,2
 Node,180,CW PUMP_WATER_OUTLET,Water,1
 Node,181,COOLING TOWER 1 WATER_INLET,Water,1
 Node,182,COOLING TOWER 1 WATER_OUTLET,Water,1
 Node,183,YMCA CONDENSER WATER LOOP SUPPLY OUTLET BRANCH PIPE_INLET,Water,1
 Node,184,YMCA CONDENSER WATER LOOP SUPPLY OUTLET,Water,4
 Node,185,YMCA CONDENSER WATER LOOP DEMAND INLET,Water,2
 Node,186,YMCA CONDENSER WATER LOOP DEMAND INLET BRANCH PIPE_OUTLET,Water,1
 Node,187,CHILLER 1 CONDENSER_WATER_INLET,Water,1
 Node,188,CHILLER 1 CONDENSER_WATER_OUTLET,Water,1
 Node,189,CHILLER 2 CONDENSER_WATER_INLET,Water,1
 Node,190,CHILLER 2 CONDENSER_WATER_OUTLET,Water,1
 Node,191,YMCA CONDENSER WATER LOOP DEMAND OUTLET BRANCH PIPE_INLET,Water,1
 Node,192,YMCA CONDENSER WATER LOOP DEMAND OUTLET,Water,2
 Node,193,TEST HOT WATER LOOP SUPPLY INLET,Water,2
 Node,194,HW PUMP_WATER_OUTLET,Water,1
 Node,195,DISTRICT HEATING HOT_WATER_INLET,Water,1
 Node,196,DISTRICT HEATING HOT_WATER_OUTLET,Water,1
 Node,197,TEST HOT WATER LOOP SUPPLY OUTLET BRANCH PIPE_INLET,Water,1
 Node,198,TEST HOT WATER LOOP SUPPLY OUTLET,Water,4
 Node,199,TEST HOT WATER LOOP DEMAND INLET,Water,2
 Node,200,TEST HOT WATER LOOP DEMAND INLET BRANCH PIPE_OUTLET,Water,1
 Node,201,AHU HEATING COIL 0_WATER_INLET,Water,2
 Node,202,AHU HEATING COIL 0_WATER_OUTLET,Water,1
 Node,203,BASEMENT FOURPIPEFANCOIL HEATING COIL_WATER_INLET,Water,1
 Node,204,BASEMENT FOURPIPEFANCOIL HEATING COIL_WATER_OUTLET,Water,1
 Node,205,AHU HEATING COIL 1_WATER_INLET,Water,2
 Node,206,AHU HEATING COIL 1_WATER_OUTLET,Water,1
 Node,207,RETAIL_1_FLR_1 FOURPIPEFANCOIL HEATING COIL_WATER_INLET,Water,1
 Node,208,RETAIL_1_FLR_1 FOURPIPEFANCOIL HEATING COIL_WATER_OUTLET,Water,1
 Node,209,RETAIL_2_FLR_1 FOURPIPEFANCOIL HEATING COIL_WATER_INLET,Water,1
 Node,210,RETAIL_2_FLR_1 FOURPIPEFANCOIL HEATING COIL_WATER_OUTLET,Water,1
 Node,211,MECH_FLR_1 FOURPIPEFANCOIL HEATING COIL_WATER_INLET,Water,1
 Node,212,MECH_FLR_1 FOURPIPEFANCOIL HEATING COIL_WATER_OUTLET,Water,1
 Node,213,STORAGE_FLR_1 FOURPIPEFANCOIL HEATING COIL_WATER_INLET,Water,1
 Node,214,STORAGE_FLR_1 FOURPIPEFANCOIL HEATING COIL_WATER_OUTLET,Water,1
 Node,215,LAUNDRY_FLR_1 FOURPIPEFANCOIL HEATING COIL_WATER_INLET,Water,1
 Node,216,LAUNDRY_FLR_1 FOURPIPEFANCOIL HEATING COIL_WATER_OUTLET,Water,1
 Node,217,CAFE_FLR_1 FOURPIPEFANCOIL HEATING COIL_WATER_INLET,Water,1
 Node,218,CAFE_FLR_1 FOURPIPEFANCOIL HEATING COIL_WATER_OUTLET,Water,1
 Node,219,LOBBY_FLR_1 FOURPIPEFANCOIL HEATING COIL_WATER_INLET,Water,1
 Node,220,LOBBY_FLR_1 FOURPIPEFANCOIL HEATING COIL_WATER_OUTLET,Water,1
 Node,221,AHU HEATING COIL 3_WATER_INLET,Water,2
 Node,222,AHU HEATING COIL 3_WATER_OUTLET,Water,1
 Node,223,ROOM_1_FLR_3 FOURPIPEFANCOIL HEATING COIL_WATER_INLET,Water,1
 Node,224,ROOM_1_FLR_3 FOURPIPEFANCOIL HEATING COIL_WATER_OUTLET,Water,1
 Node,225,ROOM_2_FLR_3 FOURPIPEFANCOIL HEATING COIL_WATER_INLET,Water,1
 Node,226,ROOM_2_FLR_3 FOURPIPEFANCOIL HEATING COIL_WATER_OUTLET,Water,1
 Node,227,ROOM_3_MULT19_FLR_3 FOURPIPEFANCOIL HEATING COIL_WATER_INLET,Water,1
 Node,228,ROOM_3_MULT19_FLR_3 FOURPIPEFANCOIL HEATING COIL_WATER_OUTLET,Water,1
 Node,229,ROOM_4_MULT19_FLR_3 FOURPIPEFANCOIL HEATING COIL_WATER_INLET,Water,1
 Node,230,ROOM_4_MULT19_FLR_3 FOURPIPEFANCOIL HEATING COIL_WATER_OUTLET,Water,1
 Node,231,ROOM_5_FLR_3 FOURPIPEFANCOIL HEATING COIL_WATER_INLET,Water,1
 Node,232,ROOM_5_FLR_3 FOURPIPEFANCOIL HEATING COIL_WATER_OUTLET,Water,1
 Node,233,ROOM_6_FLR_3 FOURPIPEFANCOIL HEATING COIL_WATER_INLET,Water,1
 Node,234,ROOM_6_FLR_3 FOURPIPEFANCOIL HEATING COIL_WATER_OUTLET,Water,1
 Node,235,CORRIDOR_FLR_3 FOURPIPEFANCOIL HEATING COIL_WATER_INLET,Water,1
 Node,236,CORRIDOR_FLR_3 FOURPIPEFANCOIL HEATING COIL_WATER_OUTLET,Water,1
 Node,237,AHU HEATING COIL 6_WATER_INLET,Water,2
 Node,238,AHU HEATING COIL 6_WATER_OUTLET,Water,1
 Node,239,ROOM_1_FLR_6 FOURPIPEFANCOIL HEATING COIL_WATER_INLET,Water,1
 Node,240,ROOM_1_FLR_6 FOURPIPEFANCOIL HEATING COIL_WATER_OUTLET,Water,1
 Node,241,ROOM_2_FLR_6 FOURPIPEFANCOIL HEATING COIL_WATER_INLET,Water,1
 Node,242,ROOM_2_FLR_6 FOURPIPEFANCOIL HEATING COIL_WATER_OUTLET,Water,1
 Node,243,ROOM_3_MULT9_FLR_6 FOURPIPEFANCOIL HEATING COIL_WATER_INLET,Water,1
 Node,244,ROOM_3_MULT9_FLR_6 FOURPIPEFANCOIL HEATING COIL_WATER_OUTLET,Water,1
 Node,245,BANQUET_FLR_6 FOURPIPEFANCOIL HEATING COIL_WATER_INLET,Water,1
 Node,246,BANQUET_FLR_6 FOURPIPEFANCOIL HEATING COIL_WATER_OUTLET,Water,1
 Node,247,DINING_FLR_6 FOURPIPEFANCOIL HEATING COIL_WATER_INLET,Water,1
 Node,248,DINING_FLR_6 FOURPIPEFANCOIL HEATING COIL_WATER_OUTLET,Water,1
 Node,249,KITCHEN_FLR_6 FOURPIPEFANCOIL HEATING COIL_WATER_INLET,Water,1
 Node,250,KITCHEN_FLR_6 FOURPIPEFANCOIL HEATING COIL_WATER_OUTLET,Water,1
 Node,251,CORRIDOR_FLR_6 FOURPIPEFANCOIL HEATING COIL_WATER_INLET,Water,1
 Node,252,CORRIDOR_FLR_6 FOURPIPEFANCOIL HEATING COIL_WATER_OUTLET,Water,1
 Node,253,TEST HOT WATER LOOP DEMAND OUTLET BRANCH PIPE_INLET,Water,1
 Node,254,TEST HOT WATER LOOP DEMAND OUTLET,Water,2
 Node,255,BASEMENT AIR NODE,Air,0
 Node,256,RETAIL_1_FLR_1 AIR NODE,Air,0
 Node,257,RETAIL_2_FLR_1 AIR NODE,Air,0
 Node,258,MECH_FLR_1 AIR NODE,Air,0
 Node,259,STORAGE_FLR_1 AIR NODE,Air,0
 Node,260,LAUNDRY_FLR_1 AIR NODE,Air,0
 Node,261,CAFE_FLR_1 AIR NODE,Air,0
 Node,262,LOBBY_FLR_1 AIR NODE,Air,0
 Node,263,ROOM_1_FLR_3 AIR NODE,Air,0
 Node,264,ROOM_2_FLR_3 AIR NODE,Air,0
 Node,265,ROOM_3_MULT19_FLR_3 AIR NODE,Air,0
 Node,266,ROOM_4_MULT19_FLR_3 AIR NODE,Air,0
 Node,267,ROOM_5_FLR_3 AIR NODE,Air,0
 Node,268,ROOM_6_FLR_3 AIR NODE,Air,0
 Node,269,CORRIDOR_FLR_3 AIR NODE,Air,0
 Node,270,ROOM_1_FLR_6 AIR NODE,Air,0
 Node,271,ROOM_2_FLR_6 AIR NODE,Air,0
 Node,272,ROOM_3_MULT9_FLR_6 AIR NODE,Air,0
 Node,273,BANQUET_FLR_6 AIR NODE,Air,0
 Node,274,DINING_FLR_6 AIR NODE,Air,0
 Node,275,KITCHEN_FLR_6 AIR NODE,Air,0
 Node,276,CORRIDOR_FLR_6 AIR NODE,Air,0
 Node,277,DOAS SYSTEM 0 DEMAND OUTLET NODE,Air,2
 Node,278,DOAS SYSTEM 1 DEMAND OUTLET NODE,Air,2
 Node,279,DOAS SYSTEM 3 DEMAND OUTLET NODE,Air,2
 Node,280,DOAS SYSTEM 6 DEMAND OUTLET NODE,Air,2
 Node,281,DOAS SYSTEM 0 OUTDOOR AIR SYSTEM CONTROLLER OUTDOOR_AIR_INLET,Air,2
 Node,282,BASEMENT FOURPIPEFANCOIL OA MIXER OUTDOOR AIR NODE,Air,1
 Node,283,DOAS SYSTEM 1 OUTDOOR AIR SYSTEM CONTROLLER OUTDOOR_AIR_INLET,Air,2
 Node,284,RETAIL_1_FLR_1 FOURPIPEFANCOIL OA MIXER OUTDOOR AIR NODE,Air,1
 Node,285,RETAIL_2_FLR_1 FOURPIPEFANCOIL OA MIXER OUTDOOR AIR NODE,Air,1
 Node,286,MECH_FLR_1 FOURPIPEFANCOIL OA MIXER OUTDOOR AIR NODE,Air,1
 Node,287,STORAGE_FLR_1 FOURPIPEFANCOIL OA MIXER OUTDOOR AIR NODE,Air,1
 Node,288,LAUNDRY_FLR_1 FOURPIPEFANCOIL OA MIXER OUTDOOR AIR NODE,Air,1
 Node,289,CAFE_FLR_1 FOURPIPEFANCOIL OA MIXER OUTDOOR AIR NODE,Air,1
 Node,290,LOBBY_FLR_1 FOURPIPEFANCOIL OA MIXER OUTDOOR AIR NODE,Air,1
 Node,291,DOAS SYSTEM 3 OUTDOOR AIR SYSTEM CONTROLLER OUTDOOR_AIR_INLET,Air,2
 Node,292,ROOM_1_FLR_3 FOURPIPEFANCOIL OA MIXER OUTDOOR AIR NODE,Air,1
 Node,293,ROOM_2_FLR_3 FOURPIPEFANCOIL OA MIXER OUTDOOR AIR NODE,Air,1
 Node,294,ROOM_3_MULT19_FLR_3 FOURPIPEFANCOIL OA MIXER OUTDOOR AIR NODE,Air,1
 Node,295,ROOM_4_MULT19_FLR_3 FOURPIPEFANCOIL OA MIXER OUTDOOR AIR NODE,Air,1
 Node,296,ROOM_5_FLR_3 FOURPIPEFANCOIL OA MIXER OUTDOOR AIR NODE,Air,1
 Node,297,ROOM_6_FLR_3 FOURPIPEFANCOIL OA MIXER OUTDOOR AIR NODE,Air,1
 Node,298,CORRIDOR_FLR_3 FOURPIPEFANCOIL OA MIXER OUTDOOR AIR NODE,Air,1
 Node,299,DOAS SYSTEM 6 OUTDOOR AIR SYSTEM CONTROLLER OUTDOOR_AIR_INLET,Air,2
 Node,300,ROOM_1_FLR_6 FOURPIPEFANCOIL OA MIXER OUTDOOR AIR NODE,Air,1
 Node,301,ROOM_2_FLR_6 FOURPIPEFANCOIL OA MIXER OUTDOOR AIR NODE,Air,1
 Node,302,ROOM_3_MULT9_FLR_6 FOURPIPEFANCOIL OA MIXER OUTDOOR AIR NODE,Air,1
 Node,303,BANQUET_FLR_6 FOURPIPEFANCOIL OA MIXER OUTDOOR AIR NODE,Air,1
 Node,304,DINING_FLR_6 FOURPIPEFANCOIL OA MIXER OUTDOOR AIR NODE,Air,1
 Node,305,KITCHEN_FLR_6 FOURPIPEFANCOIL OA MIXER OUTDOOR AIR NODE,Air,1
 Node,306,CORRIDOR_FLR_6 FOURPIPEFANCOIL OA MIXER OUTDOOR AIR NODE,Air,1
 Node,307,BASEMENT TERMINAL INLET,Air,1
 Node,308,RETAIL_1_FLR_1 TERMINAL INLET,Air,1
 Node,309,RETAIL_2_FLR_1 TERMINAL INLET,Air,1
 Node,310,MECH_FLR_1 TERMINAL INLET,Air,1
 Node,311,STORAGE_FLR_1 TERMINAL INLET,Air,1
 Node,312,LAUNDRY_FLR_1 TERMINAL INLET,Air,1
 Node,313,CAFE_FLR_1 TERMINAL INLET,Air,1
 Node,314,LOBBY_FLR_1 TERMINAL INLET,Air,1
 Node,315,ROOM_1_FLR_3 TERMINAL INLET,Air,1
 Node,316,ROOM_2_FLR_3 TERMINAL INLET,Air,1
 Node,317,ROOM_3_MULT19_FLR_3 TERMINAL INLET,Air,1
 Node,318,ROOM_4_MULT19_FLR_3 TERMINAL INLET,Air,1
 Node,319,ROOM_5_FLR_3 TERMINAL INLET,Air,1
 Node,320,ROOM_6_FLR_3 TERMINAL INLET,Air,1
 Node,321,CORRIDOR_FLR_3 TERMINAL INLET,Air,1
 Node,322,ROOM_1_FLR_6 TERMINAL INLET,Air,1
 Node,323,ROOM_2_FLR_6 TERMINAL INLET,Air,1
 Node,324,ROOM_3_MULT9_FLR_6 TERMINAL INLET,Air,1
 Node,325,BANQUET_FLR_6 TERMINAL INLET,Air,1
 Node,326,DINING_FLR_6 TERMINAL INLET,Air,1
 Node,327,KITCHEN_FLR_6 TERMINAL INLET,Air,1
 Node,328,CORRIDOR_FLR_6 TERMINAL INLET,Air,1
 Node,329,DOAS SYSTEM 0 OUTDOOR AIR SYSTEM CONTROLLER RELIEF_AIR_OUTLET,Air,1
 Node,330,BASEMENT FOURPIPEFANCOIL OA MIXER MIXED AIR NODE,Air,1
 Node,331,BASEMENT FOURPIPEFANCOIL OA MIXER RELIEF AIR NODE,Air,0
 Node,332,DOAS SYSTEM 1 OUTDOOR AIR SYSTEM CONTROLLER RELIEF_AIR_OUTLET,Air,1
 Node,333,RETAIL_1_FLR_1 FOURPIPEFANCOIL OA MIXER MIXED AIR NODE,Air,1
 Node,334,RETAIL_1_FLR_1 FOURPIPEFANCOIL OA MIXER RELIEF AIR NODE,Air,0
 Node,335,RETAIL_2_FLR_1 FOURPIPEFANCOIL OA MIXER MIXED AIR NODE,Air,1
 Node,336,RETAIL_2_FLR_1 FOURPIPEFANCOIL OA MIXER RELIEF AIR NODE,Air,0
 Node,337,MECH_FLR_1 FOURPIPEFANCOIL OA MIXER MIXED AIR NODE,Air,1
 Node,338,MECH_FLR_1 FOURPIPEFANCOIL OA MIXER RELIEF AIR NODE,Air,0
 Node,339,STORAGE_FLR_1 FOURPIPEFANCOIL OA MIXER MIXED AIR NODE,Air,1
 Node,340,STORAGE_FLR_1 FOURPIPEFANCOIL OA MIXER RELIEF AIR NODE,Air,0
 Node,341,LAUNDRY_FLR_1 FOURPIPEFANCOIL OA MIXER MIXED AIR NODE,Air,1
 Node,342,LAUNDRY_FLR_1 FOURPIPEFANCOIL OA MIXER RELIEF AIR NODE,Air,0
 Node,343,CAFE_FLR_1 FOURPIPEFANCOIL OA MIXER MIXED AIR NODE,Air,1
 Node,344,CAFE_FLR_1 FOURPIPEFANCOIL OA MIXER RELIEF AIR NODE,Air,0
 Node,345,LOBBY_FLR_1 FOURPIPEFANCOIL OA MIXER MIXED AIR NODE,Air,1
 Node,346,LOBBY_FLR_1 FOURPIPEFANCOIL OA MIXER RELIEF AIR NODE,Air,0
 Node,347,DOAS SYSTEM 3 OUTDOOR AIR SYSTEM CONTROLLER RELIEF_AIR_OUTLET,Air,1
 Node,348,ROOM_1_FLR_3 FOURPIPEFANCOIL OA MIXER MIXED AIR NODE,Air,1
 Node,349,ROOM_1_FLR_3 FOURPIPEFANCOIL OA MIXER RELIEF AIR NODE,Air,0
 Node,350,ROOM_2_FLR_3 FOURPIPEFANCOIL OA MIXER MIXED AIR NODE,Air,1
 Node,351,ROOM_2_FLR_3 FOURPIPEFANCOIL OA MIXER RELIEF AIR NODE,Air,0
 Node,352,ROOM_3_MULT19_FLR_3 FOURPIPEFANCOIL OA MIXER MIXED AIR NODE,Air,1
 Node,353,ROOM_3_MULT19_FLR_3 FOURPIPEFANCOIL OA MIXER RELIEF AIR NODE,Air,0
 Node,354,ROOM_4_MULT19_FLR_3 FOURPIPEFANCOIL OA MIXER MIXED AIR NODE,Air,1
 Node,355,ROOM_4_MULT19_FLR_3 FOURPIPEFANCOIL OA MIXER RELIEF AIR NODE,Air,0
 Node,356,ROOM_5_FLR_3 FOURPIPEFANCOIL OA MIXER MIXED AIR NODE,Air,1
 Node,357,ROOM_5_FLR_3 FOURPIPEFANCOIL OA MIXER RELIEF AIR NODE,Air,0
 Node,358,ROOM_6_FLR_3 FOURPIPEFANCOIL OA MIXER MIXED AIR NODE,Air,1
 Node,359,ROOM_6_FLR_3 FOURPIPEFANCOIL OA MIXER RELIEF AIR NODE,Air,0
 Node,360,CORRIDOR_FLR_3 FOURPIPEFANCOIL OA MIXER MIXED AIR NODE,Air,1
 Node,361,CORRIDOR_FLR_3 FOURPIPEFANCOIL OA MIXER RELIEF AIR NODE,Air,0
 Node,362,DOAS SYSTEM 6 OUTDOOR AIR SYSTEM CONTROLLER RELIEF_AIR_OUTLET,Air,1
 Node,363,ROOM_1_FLR_6 FOURPIPEFANCOIL OA MIXER MIXED AIR NODE,Air,1
 Node,364,ROOM_1_FLR_6 FOURPIPEFANCOIL OA MIXER RELIEF AIR NODE,Air,0
 Node,365,ROOM_2_FLR_6 FOURPIPEFANCOIL OA MIXER MIXED AIR NODE,Air,1
 Node,366,ROOM_2_FLR_6 FOURPIPEFANCOIL OA MIXER RELIEF AIR NODE,Air,0
 Node,367,ROOM_3_MULT9_FLR_6 FOURPIPEFANCOIL OA MIXER MIXED AIR NODE,Air,1
 Node,368,ROOM_3_MULT9_FLR_6 FOURPIPEFANCOIL OA MIXER RELIEF AIR NODE,Air,0
 Node,369,BANQUET_FLR_6 FOURPIPEFANCOIL OA MIXER MIXED AIR NODE,Air,1
 Node,370,BANQUET_FLR_6 FOURPIPEFANCOIL OA MIXER RELIEF AIR NODE,Air,0
 Node,371,DINING_FLR_6 FOURPIPEFANCOIL OA MIXER MIXED AIR NODE,Air,1
 Node,372,DINING_FLR_6 FOURPIPEFANCOIL OA MIXER RELIEF AIR NODE,Air,0
 Node,373,KITCHEN_FLR_6 FOURPIPEFANCOIL OA MIXER MIXED AIR NODE,Air,1
 Node,374,KITCHEN_FLR_6 FOURPIPEFANCOIL OA MIXER RELIEF AIR NODE,Air,0
 Node,375,CORRIDOR_FLR_6 FOURPIPEFANCOIL OA MIXER MIXED AIR NODE,Air,1
 Node,376,CORRIDOR_FLR_6 FOURPIPEFANCOIL OA MIXER RELIEF AIR NODE,Air,0
 Node,377,BASEMENT FOURPIPEFANCOIL COOLING COIL COIL OUTLET NODE,Air,1
 Node,378,RETAIL_1_FLR_1 FOURPIPEFANCOIL COOLING COIL COIL OUTLET NODE,Air,1
 Node,379,RETAIL_2_FLR_1 FOURPIPEFANCOIL COOLING COIL COIL OUTLET NODE,Air,1
 Node,380,MECH_FLR_1 FOURPIPEFANCOIL COOLING COIL COIL OUTLET NODE,Air,1
 Node,381,STORAGE_FLR_1 FOURPIPEFANCOIL COOLING COIL COIL OUTLET NODE,Air,1
 Node,382,LAUNDRY_FLR_1 FOURPIPEFANCOIL COOLING COIL COIL OUTLET NODE,Air,1
 Node,383,CAFE_FLR_1 FOURPIPEFANCOIL COOLING COIL COIL OUTLET NODE,Air,1
 Node,384,LOBBY_FLR_1 FOURPIPEFANCOIL COOLING COIL COIL OUTLET NODE,Air,1
 Node,385,ROOM_1_FLR_3 FOURPIPEFANCOIL COOLING COIL COIL OUTLET NODE,Air,1
 Node,386,ROOM_2_FLR_3 FOURPIPEFANCOIL COOLING COIL COIL OUTLET NODE,Air,1
 Node,387,ROOM_3_MULT19_FLR_3 FOURPIPEFANCOIL COOLING COIL COIL OUTLET NODE,Air,1
 Node,388,ROOM_4_MULT19_FLR_3 FOURPIPEFANCOIL COOLING COIL COIL OUTLET NODE,Air,1
 Node,389,ROOM_5_FLR_3 FOURPIPEFANCOIL COOLING COIL COIL OUTLET NODE,Air,1
 Node,390,ROOM_6_FLR_3 FOURPIPEFANCOIL COOLING COIL COIL OUTLET NODE,Air,1
 Node,391,CORRIDOR_FLR_3 FOURPIPEFANCOIL COOLING COIL COIL OUTLET NODE,Air,1
 Node,392,ROOM_1_FLR_6 FOURPIPEFANCOIL COOLING COIL COIL OUTLET NODE,Air,1
 Node,393,ROOM_2_FLR_6 FOURPIPEFANCOIL COOLING COIL COIL OUTLET NODE,Air,1
 Node,394,ROOM_3_MULT9_FLR_6 FOURPIPEFANCOIL COOLING COIL COIL OUTLET NODE,Air,1
 Node,395,BANQUET_FLR_6 FOURPIPEFANCOIL COOLING COIL COIL OUTLET NODE,Air,1
 Node,396,DINING_FLR_6 FOURPIPEFANCOIL COOLING COIL COIL OUTLET NODE,Air,1
 Node,397,KITCHEN_FLR_6 FOURPIPEFANCOIL COOLING COIL COIL OUTLET NODE,Air,1
 Node,398,CORRIDOR_FLR_6 FOURPIPEFANCOIL COOLING COIL COIL OUTLET NODE,Air,1
 Node,399,BASEMENT FOURPIPEFANCOIL CONST SPEED FAN FAN OUTLET NODE,Air,1
 Node,400,RETAIL_1_FLR_1 FOURPIPEFANCOIL CONST SPEED FAN FAN OUTLET NODE,Air,1
 Node,401,RETAIL_2_FLR_1 FOURPIPEFANCOIL CONST SPEED FAN FAN OUTLET NODE,Air,1
 Node,402,MECH_FLR_1 FOURPIPEFANCOIL CONST SPEED FAN FAN OUTLET NODE,Air,1
 Node,403,STORAGE_FLR_1 FOURPIPEFANCOIL CONST SPEED FAN FAN OUTLET NODE,Air,1
 Node,404,LAUNDRY_FLR_1 FOURPIPEFANCOIL CONST SPEED FAN FAN OUTLET NODE,Air,1
 Node,405,CAFE_FLR_1 FOURPIPEFANCOIL CONST SPEED FAN FAN OUTLET NODE,Air,1
 Node,406,LOBBY_FLR_1 FOURPIPEFANCOIL CONST SPEED FAN FAN OUTLET NODE,Air,1
 Node,407,ROOM_1_FLR_3 FOURPIPEFANCOIL CONST SPEED FAN FAN OUTLET NODE,Air,1
 Node,408,ROOM_2_FLR_3 FOURPIPEFANCOIL CONST SPEED FAN FAN OUTLET NODE,Air,1
 Node,409,ROOM_3_MULT19_FLR_3 FOURPIPEFANCOIL CONST SPEED FAN FAN OUTLET NODE,Air,1
 Node,410,ROOM_4_MULT19_FLR_3 FOURPIPEFANCOIL CONST SPEED FAN FAN OUTLET NODE,Air,1
 Node,411,ROOM_5_FLR_3 FOURPIPEFANCOIL CONST SPEED FAN FAN OUTLET NODE,Air,1
 Node,412,ROOM_6_FLR_3 FOURPIPEFANCOIL CONST SPEED FAN FAN OUTLET NODE,Air,1
 Node,413,CORRIDOR_FLR_3 FOURPIPEFANCOIL CONST SPEED FAN FAN OUTLET NODE,Air,1
 Node,414,ROOM_1_FLR_6 FOURPIPEFANCOIL CONST SPEED FAN FAN OUTLET NODE,Air,1
 Node,415,ROOM_2_FLR_6 FOURPIPEFANCOIL CONST SPEED FAN FAN OUTLET NODE,Air,1
 Node,416,ROOM_3_MULT9_FLR_6 FOURPIPEFANCOIL CONST SPEED FAN FAN OUTLET NODE,Air,1
 Node,417,BANQUET_FLR_6 FOURPIPEFANCOIL CONST SPEED FAN FAN OUTLET NODE,Air,1
 Node,418,DINING_FLR_6 FOURPIPEFANCOIL CONST SPEED FAN FAN OUTLET NODE,Air,1
 Node,419,KITCHEN_FLR_6 FOURPIPEFANCOIL CONST SPEED FAN FAN OUTLET NODE,Air,1
 Node,420,CORRIDOR_FLR_6 FOURPIPEFANCOIL CONST SPEED FAN FAN OUTLET NODE,Air,1
! ===============================================================
! Suspicious nodes have 0 references.  It is normal for some nodes, however.
! Listing nodes with 0 references (culled from previous list):
! <Suspicious Node>,<NodeNumber>,<Node Name>,<Node Fluid Type>,<# Times Node Referenced After Definition>
 Suspicious Node,255,BASEMENT AIR NODE,Air,0
 Suspicious Node,256,RETAIL_1_FLR_1 AIR NODE,Air,0
 Suspicious Node,257,RETAIL_2_FLR_1 AIR NODE,Air,0
 Suspicious Node,258,MECH_FLR_1 AIR NODE,Air,0
 Suspicious Node,259,STORAGE_FLR_1 AIR NODE,Air,0
 Suspicious Node,260,LAUNDRY_FLR_1 AIR NODE,Air,0
 Suspicious Node,261,CAFE_FLR_1 AIR NODE,Air,0
 Suspicious Node,262,LOBBY_FLR_1 AIR NODE,Air,0
 Suspicious Node,263,ROOM_1_FLR_3 AIR NODE,Air,0
 Suspicious Node,264,ROOM_2_FLR_3 AIR NODE,Air,0
 Suspicious Node,265,ROOM_3_MULT19_FLR_3 AIR NODE,Air,0
 Suspicious Node,266,ROOM_4_MULT19_FLR_3 AIR NODE,Air,0
 Suspicious Node,267,ROOM_5_FLR_3 AIR NODE,Air,0
 Suspicious Node,268,ROOM_6_FLR_3 AIR NODE,Air,0
 Suspicious Node,269,CORRIDOR_FLR_3 AIR NODE,Air,0
 Suspicious Node,270,ROOM_1_FLR_6 AIR NODE,Air,0
 Suspicious Node,271,ROOM_2_FLR_6 AIR NODE,Air,0
 Suspicious Node,272,ROOM_3_MULT9_FLR_6 AIR NODE,Air,0
 Suspicious Node,273,BANQUET_FLR_6 AIR NODE,Air,0
 Suspicious Node,274,DINING_FLR_6 AIR NODE,Air,0
 Suspicious Node,275,KITCHEN_FLR_6 AIR NODE,Air,0
 Suspicious Node,276,CORRIDOR_FLR_6 AIR NODE,Air,0
 Suspicious Node,331,BASEMENT FOURPIPEFANCOIL OA MIXER RELIEF AIR NODE,Air,0
 Suspicious Node,334,RETAIL_1_FLR_1 FOURPIPEFANCOIL OA MIXER RELIEF AIR NODE,Air,0
 Suspicious Node,336,RETAIL_2_FLR_1 FOURPIPEFANCOIL OA MIXER RELIEF AIR NODE,Air,0
 Suspicious Node,338,MECH_FLR_1 FOURPIPEFANCOIL OA MIXER RELIEF AIR NODE,Air,0
 Suspicious Node,340,STORAGE_FLR_1 FOURPIPEFANCOIL OA MIXER RELIEF AIR NODE,Air,0
 Suspicious Node,342,LAUNDRY_FLR_1 FOURPIPEFANCOIL OA MIXER RELIEF AIR NODE,Air,0
 Suspicious Node,344,CAFE_FLR_1 FOURPIPEFANCOIL OA MIXER RELIEF AIR NODE,Air,0
 Suspicious Node,346,LOBBY_FLR_1 FOURPIPEFANCOIL OA MIXER RELIEF AIR NODE,Air,0
 Suspicious Node,349,ROOM_1_FLR_3 FOURPIPEFANCOIL OA MIXER RELIEF AIR NODE,Air,0
 Suspicious Node,351,ROOM_2_FLR_3 FOURPIPEFANCOIL OA MIXER RELIEF AIR NODE,Air,0
 Suspicious Node,353,ROOM_3_MULT19_FLR_3 FOURPIPEFANCOIL OA MIXER RELIEF AIR NODE,Air,0
 Suspicious Node,355,ROOM_4_MULT19_FLR_3 FOURPIPEFANCOIL OA MIXER RELIEF AIR NODE,Air,0
 Suspicious Node,357,ROOM_5_FLR_3 FOURPIPEFANCOIL OA MIXER RELIEF AIR NODE,Air,0
 Suspicious Node,359,ROOM_6_FLR_3 FOURPIPEFANCOIL OA MIXER RELIEF AIR NODE,Air,0
 Suspicious Node,361,CORRIDOR_FLR_3 FOURPIPEFANCOIL OA MIXER RELIEF AIR NODE,Air,0
 Suspicious Node,364,ROOM_1_FLR_6 FOURPIPEFANCOIL OA MIXER RELIEF AIR NODE,Air,0
 Suspicious Node,366,ROOM_2_FLR_6 FOURPIPEFANCOIL OA MIXER RELIEF AIR NODE,Air,0
 Suspicious Node,368,ROOM_3_MULT9_FLR_6 FOURPIPEFANCOIL OA MIXER RELIEF AIR NODE,Air,0
 Suspicious Node,370,BANQUET_FLR_6 FOURPIPEFANCOIL OA MIXER RELIEF AIR NODE,Air,0
 Suspicious Node,372,DINING_FLR_6 FOURPIPEFANCOIL OA MIXER RELIEF AIR NODE,Air,0
 Suspicious Node,374,KITCHEN_FLR_6 FOURPIPEFANCOIL OA MIXER RELIEF AIR NODE,Air,0
 Suspicious Node,376,CORRIDOR_FLR_6 FOURPIPEFANCOIL OA MIXER RELIEF AIR NODE,Air,0
! ===============================================================
! <#Branch Lists>,<Number of Branch Lists>
 #Branch Lists,10
! <Branch List>,<Branch List Count>,<Branch List Name>,<Loop Name>,<Loop Type>,<Number of Branches>
! <Branch>,<Branch Count>,<Branch Name>,<Loop Name>,<Loop Type>,<Branch Inlet Node Name>,<Branch Outlet Node Name>
 Branch List,1,DOAS SYSTEM 0 BRANCHES,DOAS SYSTEM 0,Air,1
   Branch,1,DOAS SYSTEM 0 MAIN BRANCH,DOAS SYSTEM 0,Air,DOAS SYSTEM 0 SUPPLY INLET NODE,DOAS SYSTEM 0 SUPPLY OUTLET NODE
 Branch List,2,DOAS SYSTEM 1 BRANCHES,DOAS SYSTEM 1,Air,1
   Branch,1,DOAS SYSTEM 1 MAIN BRANCH,DOAS SYSTEM 1,Air,DOAS SYSTEM 1 SUPPLY INLET NODE,DOAS SYSTEM 1 SUPPLY OUTLET NODE
 Branch List,3,DOAS SYSTEM 3 BRANCHES,DOAS SYSTEM 3,Air,1
   Branch,1,DOAS SYSTEM 3 MAIN BRANCH,DOAS SYSTEM 3,Air,DOAS SYSTEM 3 SUPPLY INLET NODE,DOAS SYSTEM 3 SUPPLY OUTLET NODE
 Branch List,4,DOAS SYSTEM 6 BRANCHES,DOAS SYSTEM 6,Air,1
   Branch,1,DOAS SYSTEM 6 MAIN BRANCH,DOAS SYSTEM 6,Air,DOAS SYSTEM 6 SUPPLY INLET NODE,DOAS SYSTEM 6 SUPPLY OUTLET NODE
 Branch List,5,YMCA CHILLED WATER LOOP SUPPLY BRANCHS,YMCA CHILLED WATER LOOP,Plant Supply,4
   Branch,1,YMCA CHILLED WATER LOOP SUPPLY INLET BRANCH,YMCA CHILLED WATER LOOP,Plant Supply,YMCA CHILLED WATER LOOP SUPPLY INLET,YMCA CHILLED WATER LOOP SUPPLY INLET BRANCH PIPE_OUTLET
   Branch,2,YMCA CHILLED WATER LOOP SUPPLY BRANCH 1,YMCA CHILLED WATER LOOP,Plant Supply,CHW PUMP 1_WATER_INLET,CHILLER 1 CHILLED_WATER_OUTLET
   Branch,3,YMCA CHILLED WATER LOOP SUPPLY BRANCH 2,YMCA CHILLED WATER LOOP,Plant Supply,CHW PUMP 2_WATER_INLET,CHILLER 2 CHILLED_WATER_OUTLET
   Branch,4,YMCA CHILLED WATER LOOP SUPPLY OUTLET BRANCH,YMCA CHILLED WATER LOOP,Plant Supply,YMCA CHILLED WATER LOOP SUPPLY OUTLET BRANCH PIPE_INLET,YMCA CHILLED WATER LOOP SUPPLY OUTLET
 Branch List,6,YMCA CHILLED WATER LOOP DEMAND BRANCHS,YMCA CHILLED WATER LOOP,Plant Demand,28
   Branch,1,YMCA CHILLED WATER LOOP DEMAND INLET BRANCH,YMCA CHILLED WATER LOOP,Plant Demand,YMCA CHILLED WATER LOOP DEMAND INLET,YMCA CHILLED WATER LOOP DEMAND INLET BRANCH PIPE_OUTLET
   Branch,2,YMCA CHILLED WATER LOOP DEMAND BRANCH 1,YMCA CHILLED WATER LOOP,Plant Demand,AHU COOLING COIL 0_WATER_INLET,AHU COOLING COIL 0_WATER_OUTLET
   Branch,3,YMCA CHILLED WATER LOOP DEMAND BRANCH 2,YMCA CHILLED WATER LOOP,Plant Demand,BASEMENT FOURPIPEFANCOIL COOLING COIL_WATER_INLET,BASEMENT FOURPIPEFANCOIL COOLING COIL_WATER_OUTLET
   Branch,4,YMCA CHILLED WATER LOOP DEMAND BRANCH 3,YMCA CHILLED WATER LOOP,Plant Demand,AHU COOLING COIL 1_WATER_INLET,AHU COOLING COIL 1_WATER_OUTLET
   Branch,5,YMCA CHILLED WATER LOOP DEMAND BRANCH 4,YMCA CHILLED WATER LOOP,Plant Demand,RETAIL_1_FLR_1 FOURPIPEFANCOIL COOLING COIL_WATER_INLET,RETAIL_1_FLR_1 FOURPIPEFANCOIL COOLING COIL_WATER_OUTLET
   Branch,6,YMCA CHILLED WATER LOOP DEMAND BRANCH 5,YMCA CHILLED WATER LOOP,Plant Demand,RETAIL_2_FLR_1 FOURPIPEFANCOIL COOLING COIL_WATER_INLET,RETAIL_2_FLR_1 FOURPIPEFANCOIL COOLING COIL_WATER_OUTLET
   Branch,7,YMCA CHILLED WATER LOOP DEMAND BRANCH 6,YMCA CHILLED WATER LOOP,Plant Demand,MECH_FLR_1 FOURPIPEFANCOIL COOLING COIL_WATER_INLET,MECH_FLR_1 FOURPIPEFANCOIL COOLING COIL_WATER_OUTLET
   Branch,8,YMCA CHILLED WATER LOOP DEMAND BRANCH 7,YMCA CHILLED WATER LOOP,Plant Demand,STORAGE_FLR_1 FOURPIPEFANCOIL COOLING COIL_WATER_INLET,STORAGE_FLR_1 FOURPIPEFANCOIL COOLING COIL_WATER_OUTLET
   Branch,9,YMCA CHILLED WATER LOOP DEMAND BRANCH 8,YMCA CHILLED WATER LOOP,Plant Demand,LAUNDRY_FLR_1 FOURPIPEFANCOIL COOLING COIL_WATER_INLET,LAUNDRY_FLR_1 FOURPIPEFANCOIL COOLING COIL_WATER_OUTLET
   Branch,10,YMCA CHILLED WATER LOOP DEMAND BRANCH 9,YMCA CHILLED WATER LOOP,Plant Demand,CAFE_FLR_1 FOURPIPEFANCOIL COOLING COIL_WATER_INLET,CAFE_FLR_1 FOURPIPEFANCOIL COOLING COIL_WATER_OUTLET
   Branch,11,YMCA CHILLED WATER LOOP DEMAND BRANCH 10,YMCA CHILLED WATER LOOP,Plant Demand,LOBBY_FLR_1 FOURPIPEFANCOIL COOLING COIL_WATER_INLET,LOBBY_FLR_1 FOURPIPEFANCOIL COOLING COIL_WATER_OUTLET
   Branch,12,YMCA CHILLED WATER LOOP DEMAND BRANCH 11,YMCA CHILLED WATER LOOP,Plant Demand,AHU COOLING COIL 3_WATER_INLET,AHU COOLING COIL 3_WATER_OUTLET
   Branch,13,YMCA CHILLED WATER LOOP DEMAND BRANCH 12,YMCA CHILLED WATER LOOP,Plant Demand,ROOM_1_FLR_3 FOURPIPEFANCOIL COOLING COIL_WATER_INLET,ROOM_1_FLR_3 FOURPIPEFANCOIL COOLING COIL_WATER_OUTLET
   Branch,14,YMCA CHILLED WATER LOOP DEMAND BRANCH 13,YMCA CHILLED WATER LOOP,Plant Demand,ROOM_2_FLR_3 FOURPIPEFANCOIL COOLING COIL_WATER_INLET,ROOM_2_FLR_3 FOURPIPEFANCOIL COOLING COIL_WATER_OUTLET
   Branch,15,YMCA CHILLED WATER LOOP DEMAND BRANCH 14,YMCA CHILLED WATER LOOP,Plant Demand,ROOM_3_MULT19_FLR_3 FOURPIPEFANCOIL COOLING COIL_WATER_INLET,ROOM_3_MULT19_FLR_3 FOURPIPEFANCOIL COOLING COIL_WATER_OUTLET
   Branch,16,YMCA CHILLED WATER LOOP DEMAND BRANCH 15,YMCA CHILLED WATER LOOP,Plant Demand,ROOM_4_MULT19_FLR_3 FOURPIPEFANCOIL COOLING COIL_WATER_INLET,ROOM_4_MULT19_FLR_3 FOURPIPEFANCOIL COOLING COIL_WATER_OUTLET
   Branch,17,YMCA CHILLED WATER LOOP DEMAND BRANCH 16,YMCA CHILLED WATER LOOP,Plant Demand,ROOM_5_FLR_3 FOURPIPEFANCOIL COOLING COIL_WATER_INLET,ROOM_5_FLR_3 FOURPIPEFANCOIL COOLING COIL_WATER_OUTLET
   Branch,18,YMCA CHILLED WATER LOOP DEMAND BRANCH 17,YMCA CHILLED WATER LOOP,Plant Demand,ROOM_6_FLR_3 FOURPIPEFANCOIL COOLING COIL_WATER_INLET,ROOM_6_FLR_3 FOURPIPEFANCOIL COOLING COIL_WATER_OUTLET
   Branch,19,YMCA CHILLED WATER LOOP DEMAND BRANCH 18,YMCA CHILLED WATER LOOP,Plant Demand,CORRIDOR_FLR_3 FOURPIPEFANCOIL COOLING COIL_WATER_INLET,CORRIDOR_FLR_3 FOURPIPEFANCOIL COOLING COIL_WATER_OUTLET
   Branch,20,YMCA CHILLED WATER LOOP DEMAND BRANCH 19,YMCA CHILLED WATER LOOP,Plant Demand,AHU COOLING COIL 6_WATER_INLET,AHU COOLING COIL 6_WATER_OUTLET
   Branch,21,YMCA CHILLED WATER LOOP DEMAND BRANCH 20,YMCA CHILLED WATER LOOP,Plant Demand,ROOM_1_FLR_6 FOURPIPEFANCOIL COOLING COIL_WATER_INLET,ROOM_1_FLR_6 FOURPIPEFANCOIL COOLING COIL_WATER_OUTLET
   Branch,22,YMCA CHILLED WATER LOOP DEMAND BRANCH 21,YMCA CHILLED WATER LOOP,Plant Demand,ROOM_2_FLR_6 FOURPIPEFANCOIL COOLING COIL_WATER_INLET,ROOM_2_FLR_6 FOURPIPEFANCOIL COOLING COIL_WATER_OUTLET
   Branch,23,YMCA CHILLED WATER LOOP DEMAND BRANCH 22,YMCA CHILLED WATER LOOP,Plant Demand,ROOM_3_MULT9_FLR_6 FOURPIPEFANCOIL COOLING COIL_WATER_INLET,ROOM_3_MULT9_FLR_6 FOURPIPEFANCOIL COOLING COIL_WATER_OUTLET
   Branch,24,YMCA CHILLED WATER LOOP DEMAND BRANCH 23,YMCA CHILLED WATER LOOP,Plant Demand,BANQUET_FLR_6 FOURPIPEFANCOIL COOLING COIL_WATER_INLET,BANQUET_FLR_6 FOURPIPEFANCOIL COOLING COIL_WATER_OUTLET
   Branch,25,YMCA CHILLED WATER LOOP DEMAND BRANCH 24,YMCA CHILLED WATER LOOP,Plant Demand,DINING_FLR_6 FOURPIPEFANCOIL COOLING COIL_WATER_INLET,DINING_FLR_6 FOURPIPEFANCOIL COOLING COIL_WATER_OUTLET
   Branch,26,YMCA CHILLED WATER LOOP DEMAND BRANCH 25,YMCA CHILLED WATER LOOP,Plant Demand,KITCHEN_FLR_6 FOURPIPEFANCOIL COOLING COIL_WATER_INLET,KITCHEN_FLR_6 FOURPIPEFANCOIL COOLING COIL_WATER_OUTLET
   Branch,27,YMCA CHILLED WATER LOOP DEMAND BRANCH 26,YMCA CHILLED WATER LOOP,Plant Demand,CORRIDOR_FLR_6 FOURPIPEFANCOIL COOLING COIL_WATER_INLET,CORRIDOR_FLR_6 FOURPIPEFANCOIL COOLING COIL_WATER_OUTLET
   Branch,28,YMCA CHILLED WATER LOOP DEMAND OUTLET BRANCH,YMCA CHILLED WATER LOOP,Plant Demand,YMCA CHILLED WATER LOOP DEMAND OUTLET BRANCH PIPE_INLET,YMCA CHILLED WATER LOOP DEMAND OUTLET
 Branch List,7,YMCA CONDENSER WATER LOOP SUPPLY BRANCHS,YMCA CONDENSER WATER LOOP,Plant Supply,3
   Branch,1,YMCA CONDENSER WATER LOOP SUPPLY INLET BRANCH,YMCA CONDENSER WATER LOOP,Plant Supply,YMCA CONDENSER WATER LOOP SUPPLY INLET,CW PUMP_WATER_OUTLET
   Branch,2,YMCA CONDENSER WATER LOOP SUPPLY BRANCH 1,YMCA CONDENSER WATER LOOP,Plant Supply,COOLING TOWER 1 WATER_INLET,COOLING TOWER 1 WATER_OUTLET
   Branch,3,YMCA CONDENSER WATER LOOP SUPPLY OUTLET BRANCH,YMCA CONDENSER WATER LOOP,Plant Supply,YMCA CONDENSER WATER LOOP SUPPLY OUTLET BRANCH PIPE_INLET,YMCA CONDENSER WATER LOOP SUPPLY OUTLET
 Branch List,8,YMCA CONDENSER WATER LOOP DEMAND BRANCHS,YMCA CONDENSER WATER LOOP,Plant Demand,4
   Branch,1,YMCA CONDENSER WATER LOOP DEMAND INLET BRANCH,YMCA CONDENSER WATER LOOP,Plant Demand,YMCA CONDENSER WATER LOOP DEMAND INLET,YMCA CONDENSER WATER LOOP DEMAND INLET BRANCH PIPE_OUTLET
   Branch,2,YMCA CONDENSER WATER LOOP DEMAND BRANCH 1,YMCA CONDENSER WATER LOOP,Plant Demand,CHILLER 1 CONDENSER_WATER_INLET,CHILLER 1 CONDENSER_WATER_OUTLET
   Branch,3,YMCA CONDENSER WATER LOOP DEMAND BRANCH 2,YMCA CONDENSER WATER LOOP,Plant Demand,CHILLER 2 CONDENSER_WATER_INLET,CHILLER 2 CONDENSER_WATER_OUTLET
   Branch,4,YMCA CONDENSER WATER LOOP DEMAND OUTLET BRANCH,YMCA CONDENSER WATER LOOP,Plant Demand,YMCA CONDENSER WATER LOOP DEMAND OUTLET BRANCH PIPE_INLET,YMCA CONDENSER WATER LOOP DEMAND OUTLET
 Branch List,9,TEST HOT WATER LOOP SUPPLY BRANCHS,TEST HOT WATER LOOP,Plant Supply,3
   Branch,1,TEST HOT WATER LOOP SUPPLY INLET BRANCH,TEST HOT WATER LOOP,Plant Supply,TEST HOT WATER LOOP SUPPLY INLET,HW PUMP_WATER_OUTLET
   Branch,2,TEST HOT WATER LOOP SUPPLY BRANCH 1,TEST HOT WATER LOOP,Plant Supply,DISTRICT HEATING HOT_WATER_INLET,DISTRICT HEATING HOT_WATER_OUTLET
   Branch,3,TEST HOT WATER LOOP SUPPLY OUTLET BRANCH,TEST HOT WATER LOOP,Plant Supply,TEST HOT WATER LOOP SUPPLY OUTLET BRANCH PIPE_INLET,TEST HOT WATER LOOP SUPPLY OUTLET
 Branch List,10,TEST HOT WATER LOOP DEMAND BRANCHS,TEST HOT WATER LOOP,Plant Demand,28
   Branch,1,TEST HOT WATER LOOP DEMAND INLET BRANCH,TEST HOT WATER LOOP,Plant Demand,TEST HOT WATER LOOP DEMAND INLET,TEST HOT WATER LOOP DEMAND INLET BRANCH PIPE_OUTLET
   Branch,2,TEST HOT WATER LOOP DEMAND BRANCH 1,TEST HOT WATER LOOP,Plant Demand,AHU HEATING COIL 0_WATER_INLET,AHU HEATING COIL 0_WATER_OUTLET
   Branch,3,TEST HOT WATER LOOP DEMAND BRANCH 2,TEST HOT WATER LOOP,Plant Demand,BASEMENT FOURPIPEFANCOIL HEATING COIL_WATER_INLET,BASEMENT FOURPIPEFANCOIL HEATING COIL_WATER_OUTLET
   Branch,4,TEST HOT WATER LOOP DEMAND BRANCH 3,TEST HOT WATER LOOP,Plant Demand,AHU HEATING COIL 1_WATER_INLET,AHU HEATING COIL 1_WATER_OUTLET
   Branch,5,TEST HOT WATER LOOP DEMAND BRANCH 4,TEST HOT WATER LOOP,Plant Demand,RETAIL_1_FLR_1 FOURPIPEFANCOIL HEATING COIL_WATER_INLET,RETAIL_1_FLR_1 FOURPIPEFANCOIL HEATING COIL_WATER_OUTLET
   Branch,6,TEST HOT WATER LOOP DEMAND BRANCH 5,TEST HOT WATER LOOP,Plant Demand,RETAIL_2_FLR_1 FOURPIPEFANCOIL HEATING COIL_WATER_INLET,RETAIL_2_FLR_1 FOURPIPEFANCOIL HEATING COIL_WATER_OUTLET
   Branch,7,TEST HOT WATER LOOP DEMAND BRANCH 6,TEST HOT WATER LOOP,Plant Demand,MECH_FLR_1 FOURPIPEFANCOIL HEATING COIL_WATER_INLET,MECH_FLR_1 FOURPIPEFANCOIL HEATING COIL_WATER_OUTLET
   Branch,8,TEST HOT WATER LOOP DEMAND BRANCH 7,TEST HOT WATER LOOP,Plant Demand,STORAGE_FLR_1 FOURPIPEFANCOIL HEATING COIL_WATER_INLET,STORAGE_FLR_1 FOURPIPEFANCOIL HEATING COIL_WATER_OUTLET
   Branch,9,TEST HOT WATER LOOP DEMAND BRANCH 8,TEST HOT WATER LOOP,Plant Demand,LAUNDRY_FLR_1 FOURPIPEFANCOIL HEATING COIL_WATER_INLET,LAUNDRY_FLR_1 FOURPIPEFANCOIL HEATING COIL_WATER_OUTLET
   Branch,10,TEST HOT WATER LOOP DEMAND BRANCH 9,TEST HOT WATER LOOP,Plant Demand,CAFE_FLR_1 FOURPIPEFANCOIL HEATING COIL_WATER_INLET,CAFE_FLR_1 FOURPIPEFANCOIL HEATING COIL_WATER_OUTLET
   Branch,11,TEST HOT WATER LOOP DEMAND BRANCH 10,TEST HOT WATER LOOP,Plant Demand,LOBBY_FLR_1 FOURPIPEFANCOIL HEATING COIL_WATER_INLET,LOBBY_FLR_1 FOURPIPEFANCOIL HEATING COIL_WATER_OUTLET
   Branch,12,TEST HOT WATER LOOP DEMAND BRANCH 11,TEST HOT WATER LOOP,Plant Demand,AHU HEATING COIL 3_WATER_INLET,AHU HEATING COIL 3_WATER_OUTLET
   Branch,13,TEST HOT WATER LOOP DEMAND BRANCH 12,TEST HOT WATER LOOP,Plant Demand,ROOM_1_FLR_3 FOURPIPEFANCOIL HEATING COIL_WATER_INLET,ROOM_1_FLR_3 FOURPIPEFANCOIL HEATING COIL_WATER_OUTLET
   Branch,14,TEST HOT WATER LOOP DEMAND BRANCH 13,TEST HOT WATER LOOP,Plant Demand,ROOM_2_FLR_3 FOURPIPEFANCOIL HEATING COIL_WATER_INLET,ROOM_2_FLR_3 FOURPIPEFANCOIL HEATING COIL_WATER_OUTLET
   Branch,15,TEST HOT WATER LOOP DEMAND BRANCH 14,TEST HOT WATER LOOP,Plant Demand,ROOM_3_MULT19_FLR_3 FOURPIPEFANCOIL HEATING COIL_WATER_INLET,ROOM_3_MULT19_FLR_3 FOURPIPEFANCOIL HEATING COIL_WATER_OUTLET
   Branch,16,TEST HOT WATER LOOP DEMAND BRANCH 15,TEST HOT WATER LOOP,Plant Demand,ROOM_4_MULT19_FLR_3 FOURPIPEFANCOIL HEATING COIL_WATER_INLET,ROOM_4_MULT19_FLR_3 FOURPIPEFANCOIL HEATING COIL_WATER_OUTLET
   Branch,17,TEST HOT WATER LOOP DEMAND BRANCH 16,TEST HOT WATER LOOP,Plant Demand,ROOM_5_FLR_3 FOURPIPEFANCOIL HEATING COIL_WATER_INLET,ROOM_5_FLR_3 FOURPIPEFANCOIL HEATING COIL_WATER_OUTLET
   Branch,18,TEST HOT WATER LOOP DEMAND BRANCH 17,TEST HOT WATER LOOP,Plant Demand,ROOM_6_FLR_3 FOURPIPEFANCOIL HEATING COIL_WATER_INLET,ROOM_6_FLR_3 FOURPIPEFANCOIL HEATING COIL_WATER_OUTLET
   Branch,19,TEST HOT WATER LOOP DEMAND BRANCH 18,TEST HOT WATER LOOP,Plant Demand,CORRIDOR_FLR_3 FOURPIPEFANCOIL HEATING COIL_WATER_INLET,CORRIDOR_FLR_3 FOURPIPEFANCOIL HEATING COIL_WATER_OUTLET
   Branch,20,TEST HOT WATER LOOP DEMAND BRANCH 19,TEST HOT WATER LOOP,Plant Demand,AHU HEATING COIL 6_WATER_INLET,AHU HEATING COIL 6_WATER_OUTLET
   Branch,21,TEST HOT WATER LOOP DEMAND BRANCH 20,TEST HOT WATER LOOP,Plant Demand,ROOM_1_FLR_6 FOURPIPEFANCOIL HEATING COIL_WATER_INLET,ROOM_1_FLR_6 FOURPIPEFANCOIL HEATING COIL_WATER_OUTLET
   Branch,22,TEST HOT WATER LOOP DEMAND BRANCH 21,TEST HOT WATER LOOP,Plant Demand,ROOM_2_FLR_6 FOURPIPEFANCOIL HEATING COIL_WATER_INLET,ROOM_2_FLR_6 FOURPIPEFANCOIL HEATING COIL_WATER_OUTLET
   Branch,23,TEST HOT WATER LOOP DEMAND BRANCH 22,TEST HOT WATER LOOP,Plant Demand,ROOM_3_MULT9_FLR_6 FOURPIPEFANCOIL HEATING COIL_WATER_INLET,ROOM_3_MULT9_FLR_6 FOURPIPEFANCOIL HEATING COIL_WATER_OUTLET
   Branch,24,TEST HOT WATER LOOP DEMAND BRANCH 23,TEST HOT WATER LOOP,Plant Demand,BANQUET_FLR_6 FOURPIPEFANCOIL HEATING COIL_WATER_INLET,BANQUET_FLR_6 FOURPIPEFANCOIL HEATING COIL_WATER_OUTLET
   Branch,25,TEST HOT WATER LOOP DEMAND BRANCH 24,TEST HOT WATER LOOP,Plant Demand,DINING_FLR_6 FOURPIPEFANCOIL HEATING COIL_WATER_INLET,DINING_FLR_6 FOURPIPEFANCOIL HEATING COIL_WATER_OUTLET
   Branch,26,TEST HOT WATER LOOP DEMAND BRANCH 25,TEST HOT WATER LOOP,Plant Demand,KITCHEN_FLR_6 FOURPIPEFANCOIL HEATING COIL_WATER_INLET,KITCHEN_FLR_6 FOURPIPEFANCOIL HEATING COIL_WATER_OUTLET
   Branch,27,TEST HOT WATER LOOP DEMAND BRANCH 26,TEST HOT WATER LOOP,Plant Demand,CORRIDOR_FLR_6 FOURPIPEFANCOIL HEATING COIL_WATER_INLET,CORRIDOR_FLR_6 FOURPIPEFANCOIL HEATING COIL_WATER_OUTLET
   Branch,28,TEST HOT WATER LOOP DEMAND OUTLET BRANCH,TEST HOT WATER LOOP,Plant Demand,TEST HOT WATER LOOP DEMAND OUTLET BRANCH PIPE_INLET,TEST HOT WATER LOOP DEMAND OUTLET
! ===============================================================
! <#Supply Air Paths>,<Number of Supply Air Paths>
 #Supply Air Paths,4
! <Supply Air Path>,<Supply Air Path Count>,<Supply Air Path Name>,<AirLoopHVAC Name>
! <#Components on Supply Air Path>,<Number of Components>
! <Supply Air Path Component>,<Component Count>,<Component Type>,<Component Name>,<AirLoopHVAC Name>
! <#Outlet Nodes on Supply Air Path Component>,<Number of Nodes>
! <Supply Air Path Component Nodes>,<Node Count>,<Component Type>,<Component Name>,<Inlet Node Name>,<Outlet Node Name>,<AirLoopHVAC Name>
 Supply Air Path,1,DOAS SYSTEM 0 SUPPLY PATH,DOAS SYSTEM 0
   #Components on Supply Air Path,1
   Supply Air Path Component,1,AIRLOOPHVAC:ZONESPLITTER,DOAS SYSTEM 0 ZONE SPLITTER,DOAS SYSTEM 0
     #Outlet Nodes on Supply Air Path Component,1
     Supply Air Path Component Nodes,1,AIRLOOPHVAC:ZONESPLITTER,DOAS SYSTEM 0 ZONE SPLITTER,DOAS SYSTEM 0 DEMAND INLET NODE,BASEMENT TERMINAL INLET,DOAS SYSTEM 0
! <#Nodes on Supply Air Path>,<Number of Nodes>
! <Supply Air Path Node>,<Node Type>,<Node Count>,<Node Name>,<AirLoopHVAC Name>
#Nodes on Supply Air Path,2
   Supply Air Path Node,Inlet Node,1,DOAS SYSTEM 0 DEMAND INLET NODE,DOAS SYSTEM 0
   Supply Air Path Node,Outlet Node,2,BASEMENT TERMINAL INLET,DOAS SYSTEM 0
 Supply Air Path,2,DOAS SYSTEM 1 SUPPLY PATH,DOAS SYSTEM 1
   #Components on Supply Air Path,1
   Supply Air Path Component,1,AIRLOOPHVAC:ZONESPLITTER,DOAS SYSTEM 1 ZONE SPLITTER,DOAS SYSTEM 1
     #Outlet Nodes on Supply Air Path Component,7
     Supply Air Path Component Nodes,1,AIRLOOPHVAC:ZONESPLITTER,DOAS SYSTEM 1 ZONE SPLITTER,DOAS SYSTEM 1 DEMAND INLET NODE,RETAIL_1_FLR_1 TERMINAL INLET,DOAS SYSTEM 1
     Supply Air Path Component Nodes,2,AIRLOOPHVAC:ZONESPLITTER,DOAS SYSTEM 1 ZONE SPLITTER,DOAS SYSTEM 1 DEMAND INLET NODE,RETAIL_2_FLR_1 TERMINAL INLET,DOAS SYSTEM 1
     Supply Air Path Component Nodes,3,AIRLOOPHVAC:ZONESPLITTER,DOAS SYSTEM 1 ZONE SPLITTER,DOAS SYSTEM 1 DEMAND INLET NODE,MECH_FLR_1 TERMINAL INLET,DOAS SYSTEM 1
     Supply Air Path Component Nodes,4,AIRLOOPHVAC:ZONESPLITTER,DOAS SYSTEM 1 ZONE SPLITTER,DOAS SYSTEM 1 DEMAND INLET NODE,STORAGE_FLR_1 TERMINAL INLET,DOAS SYSTEM 1
     Supply Air Path Component Nodes,5,AIRLOOPHVAC:ZONESPLITTER,DOAS SYSTEM 1 ZONE SPLITTER,DOAS SYSTEM 1 DEMAND INLET NODE,LAUNDRY_FLR_1 TERMINAL INLET,DOAS SYSTEM 1
     Supply Air Path Component Nodes,6,AIRLOOPHVAC:ZONESPLITTER,DOAS SYSTEM 1 ZONE SPLITTER,DOAS SYSTEM 1 DEMAND INLET NODE,CAFE_FLR_1 TERMINAL INLET,DOAS SYSTEM 1
     Supply Air Path Component Nodes,7,AIRLOOPHVAC:ZONESPLITTER,DOAS SYSTEM 1 ZONE SPLITTER,DOAS SYSTEM 1 DEMAND INLET NODE,LOBBY_FLR_1 TERMINAL INLET,DOAS SYSTEM 1
! <#Nodes on Supply Air Path>,<Number of Nodes>
! <Supply Air Path Node>,<Node Type>,<Node Count>,<Node Name>,<AirLoopHVAC Name>
#Nodes on Supply Air Path,8
   Supply Air Path Node,Inlet Node,1,DOAS SYSTEM 1 DEMAND INLET NODE,DOAS SYSTEM 1
   Supply Air Path Node,Outlet Node,2,RETAIL_1_FLR_1 TERMINAL INLET,DOAS SYSTEM 1
   Supply Air Path Node,Outlet Node,3,RETAIL_2_FLR_1 TERMINAL INLET,DOAS SYSTEM 1
   Supply Air Path Node,Outlet Node,4,MECH_FLR_1 TERMINAL INLET,DOAS SYSTEM 1
   Supply Air Path Node,Outlet Node,5,STORAGE_FLR_1 TERMINAL INLET,DOAS SYSTEM 1
   Supply Air Path Node,Outlet Node,6,LAUNDRY_FLR_1 TERMINAL INLET,DOAS SYSTEM 1
   Supply Air Path Node,Outlet Node,7,CAFE_FLR_1 TERMINAL INLET,DOAS SYSTEM 1
   Supply Air Path Node,Outlet Node,8,LOBBY_FLR_1 TERMINAL INLET,DOAS SYSTEM 1
 Supply Air Path,3,DOAS SYSTEM 3 SUPPLY PATH,DOAS SYSTEM 3
   #Components on Supply Air Path,1
   Supply Air Path Component,1,AIRLOOPHVAC:ZONESPLITTER,DOAS SYSTEM 3 ZONE SPLITTER,DOAS SYSTEM 3
     #Outlet Nodes on Supply Air Path Component,7
     Supply Air Path Component Nodes,1,AIRLOOPHVAC:ZONESPLITTER,DOAS SYSTEM 3 ZONE SPLITTER,DOAS SYSTEM 3 DEMAND INLET NODE,ROOM_1_FLR_3 TERMINAL INLET,DOAS SYSTEM 3
     Supply Air Path Component Nodes,2,AIRLOOPHVAC:ZONESPLITTER,DOAS SYSTEM 3 ZONE SPLITTER,DOAS SYSTEM 3 DEMAND INLET NODE,ROOM_2_FLR_3 TERMINAL INLET,DOAS SYSTEM 3
     Supply Air Path Component Nodes,3,AIRLOOPHVAC:ZONESPLITTER,DOAS SYSTEM 3 ZONE SPLITTER,DOAS SYSTEM 3 DEMAND INLET NODE,ROOM_3_MULT19_FLR_3 TERMINAL INLET,DOAS SYSTEM 3
     Supply Air Path Component Nodes,4,AIRLOOPHVAC:ZONESPLITTER,DOAS SYSTEM 3 ZONE SPLITTER,DOAS SYSTEM 3 DEMAND INLET NODE,ROOM_4_MULT19_FLR_3 TERMINAL INLET,DOAS SYSTEM 3
     Supply Air Path Component Nodes,5,AIRLOOPHVAC:ZONESPLITTER,DOAS SYSTEM 3 ZONE SPLITTER,DOAS SYSTEM 3 DEMAND INLET NODE,ROOM_5_FLR_3 TERMINAL INLET,DOAS SYSTEM 3
     Supply Air Path Component Nodes,6,AIRLOOPHVAC:ZONESPLITTER,DOAS SYSTEM 3 ZONE SPLITTER,DOAS SYSTEM 3 DEMAND INLET NODE,ROOM_6_FLR_3 TERMINAL INLET,DOAS SYSTEM 3
     Supply Air Path Component Nodes,7,AIRLOOPHVAC:ZONESPLITTER,DOAS SYSTEM 3 ZONE SPLITTER,DOAS SYSTEM 3 DEMAND INLET NODE,CORRIDOR_FLR_3 TERMINAL INLET,DOAS SYSTEM 3
! <#Nodes on Supply Air Path>,<Number of Nodes>
! <Supply Air Path Node>,<Node Type>,<Node Count>,<Node Name>,<AirLoopHVAC Name>
#Nodes on Supply Air Path,8
   Supply Air Path Node,Inlet Node,1,DOAS SYSTEM 3 DEMAND INLET NODE,DOAS SYSTEM 3
   Supply Air Path Node,Outlet Node,2,ROOM_1_FLR_3 TERMINAL INLET,DOAS SYSTEM 3
   Supply Air Path Node,Outlet Node,3,ROOM_2_FLR_3 TERMINAL INLET,DOAS SYSTEM 3
   Supply Air Path Node,Outlet Node,4,ROOM_3_MULT19_FLR_3 TERMINAL INLET,DOAS SYSTEM 3
   Supply Air Path Node,Outlet Node,5,ROOM_4_MULT19_FLR_3 TERMINAL INLET,DOAS SYSTEM 3
   Supply Air Path Node,Outlet Node,6,ROOM_5_FLR_3 TERMINAL INLET,DOAS SYSTEM 3
   Supply Air Path Node,Outlet Node,7,ROOM_6_FLR_3 TERMINAL INLET,DOAS SYSTEM 3
   Supply Air Path Node,Outlet Node,8,CORRIDOR_FLR_3 TERMINAL INLET,DOAS SYSTEM 3
 Supply Air Path,4,DOAS SYSTEM 6 SUPPLY PATH,DOAS SYSTEM 6
   #Components on Supply Air Path,1
   Supply Air Path Component,1,AIRLOOPHVAC:ZONESPLITTER,DOAS SYSTEM 6 ZONE SPLITTER,DOAS SYSTEM 6
     #Outlet Nodes on Supply Air Path Component,7
     Supply Air Path Component Nodes,1,AIRLOOPHVAC:ZONESPLITTER,DOAS SYSTEM 6 ZONE SPLITTER,DOAS SYSTEM 6 DEMAND INLET NODE,ROOM_1_FLR_6 TERMINAL INLET,DOAS SYSTEM 6
     Supply Air Path Component Nodes,2,AIRLOOPHVAC:ZONESPLITTER,DOAS SYSTEM 6 ZONE SPLITTER,DOAS SYSTEM 6 DEMAND INLET NODE,ROOM_2_FLR_6 TERMINAL INLET,DOAS SYSTEM 6
     Supply Air Path Component Nodes,3,AIRLOOPHVAC:ZONESPLITTER,DOAS SYSTEM 6 ZONE SPLITTER,DOAS SYSTEM 6 DEMAND INLET NODE,ROOM_3_MULT9_FLR_6 TERMINAL INLET,DOAS SYSTEM 6
     Supply Air Path Component Nodes,4,AIRLOOPHVAC:ZONESPLITTER,DOAS SYSTEM 6 ZONE SPLITTER,DOAS SYSTEM 6 DEMAND INLET NODE,BANQUET_FLR_6 TERMINAL INLET,DOAS SYSTEM 6
     Supply Air Path Component Nodes,5,AIRLOOPHVAC:ZONESPLITTER,DOAS SYSTEM 6 ZONE SPLITTER,DOAS SYSTEM 6 DEMAND INLET NODE,DINING_FLR_6 TERMINAL INLET,DOAS SYSTEM 6
     Supply Air Path Component Nodes,6,AIRLOOPHVAC:ZONESPLITTER,DOAS SYSTEM 6 ZONE SPLITTER,DOAS SYSTEM 6 DEMAND INLET NODE,KITCHEN_FLR_6 TERMINAL INLET,DOAS SYSTEM 6
     Supply Air Path Component Nodes,7,AIRLOOPHVAC:ZONESPLITTER,DOAS SYSTEM 6 ZONE SPLITTER,DOAS SYSTEM 6 DEMAND INLET NODE,CORRIDOR_FLR_6 TERMINAL INLET,DOAS SYSTEM 6
! <#Nodes on Supply Air Path>,<Number of Nodes>
! <Supply Air Path Node>,<Node Type>,<Node Count>,<Node Name>,<AirLoopHVAC Name>
#Nodes on Supply Air Path,8
   Supply Air Path Node,Inlet Node,1,DOAS SYSTEM 6 DEMAND INLET NODE,DOAS SYSTEM 6
   Supply Air Path Node,Outlet Node,2,ROOM_1_FLR_6 TERMINAL INLET,DOAS SYSTEM 6
   Supply Air Path Node,Outlet Node,3,ROOM_2_FLR_6 TERMINAL INLET,DOAS SYSTEM 6
   Supply Air Path Node,Outlet Node,4,ROOM_3_MULT9_FLR_6 TERMINAL INLET,DOAS SYSTEM 6
   Supply Air Path Node,Outlet Node,5,BANQUET_FLR_6 TERMINAL INLET,DOAS SYSTEM 6
   Supply Air Path Node,Outlet Node,6,DINING_FLR_6 TERMINAL INLET,DOAS SYSTEM 6
   Supply Air Path Node,Outlet Node,7,KITCHEN_FLR_6 TERMINAL INLET,DOAS SYSTEM 6
   Supply Air Path Node,Outlet Node,8,CORRIDOR_FLR_6 TERMINAL INLET,DOAS SYSTEM 6
! ===============================================================
! <#Return Air Paths>,<Number of Return Air Paths>
 #Return Air Paths,4
! <Return Air Path>,<Return Air Path Count>,<Return Air Path Name>,<AirLoopHVAC Name>
! <#Components on Return Air Path>,<Number of Components>
! <Return Air Path Component>,<Component Count>,<Component Type>,<Component Name>,<AirLoopHVAC Name>
! <#Inlet Nodes on Return Air Path Component>,<Number of Nodes>
! <Return Air Path Component Nodes>,<Node Count>,<Component Type>,<Component Name>,<Inlet Node Name>,<Outlet Node Name>,<AirLoopHVAC Name>
 Return Air Path,1,DOAS SYSTEM 0 RETURN PATH,DOAS SYSTEM 0
   #Components on Return Air Path,1
   Return Air Path Component,1,AIRLOOPHVAC:ZONEMIXER,DOAS SYSTEM 0 ZONE MIXER,DOAS SYSTEM 0
     #Inlet Nodes on Return Air Path Component,1
     Return Air Path Component Nodes,1,AIRLOOPHVAC:ZONEMIXER,DOAS SYSTEM 0 ZONE MIXER,BASEMENT RETURN AIR INLET,DOAS SYSTEM 0 DEMAND OUTLET NODE,DOAS SYSTEM 0
! <#Nodes on Return Air Path>,<Number of Nodes>
! <Return Air Path Node>,<Node Type>,<Node Count>,<Node Name>,<AirLoopHVAC Name>
   #Nodes on Return Air Path,2
   Return Air Path Node,Outlet Node,1,DOAS SYSTEM 0 DEMAND OUTLET NODE,DOAS SYSTEM 0
   Return Air Path Node,Inlet Node,2,BASEMENT RETURN AIR INLET,DOAS SYSTEM 0
 Return Air Path,2,DOAS SYSTEM 1 RETURN PATH,DOAS SYSTEM 1
   #Components on Return Air Path,1
   Return Air Path Component,1,AIRLOOPHVAC:ZONEMIXER,DOAS SYSTEM 1 ZONE MIXER,DOAS SYSTEM 1
     #Inlet Nodes on Return Air Path Component,7
     Return Air Path Component Nodes,1,AIRLOOPHVAC:ZONEMIXER,DOAS SYSTEM 1 ZONE MIXER,RETAIL_1_FLR_1 RETURN AIR INLET,DOAS SYSTEM 1 DEMAND OUTLET NODE,DOAS SYSTEM 1
     Return Air Path Component Nodes,2,AIRLOOPHVAC:ZONEMIXER,DOAS SYSTEM 1 ZONE MIXER,RETAIL_2_FLR_1 RETURN AIR INLET,DOAS SYSTEM 1 DEMAND OUTLET NODE,DOAS SYSTEM 1
     Return Air Path Component Nodes,3,AIRLOOPHVAC:ZONEMIXER,DOAS SYSTEM 1 ZONE MIXER,MECH_FLR_1 RETURN AIR INLET,DOAS SYSTEM 1 DEMAND OUTLET NODE,DOAS SYSTEM 1
     Return Air Path Component Nodes,4,AIRLOOPHVAC:ZONEMIXER,DOAS SYSTEM 1 ZONE MIXER,STORAGE_FLR_1 RETURN AIR INLET,DOAS SYSTEM 1 DEMAND OUTLET NODE,DOAS SYSTEM 1
     Return Air Path Component Nodes,5,AIRLOOPHVAC:ZONEMIXER,DOAS SYSTEM 1 ZONE MIXER,LAUNDRY_FLR_1 RETURN AIR INLET,DOAS SYSTEM 1 DEMAND OUTLET NODE,DOAS SYSTEM 1
     Return Air Path Component Nodes,6,AIRLOOPHVAC:ZONEMIXER,DOAS SYSTEM 1 ZONE MIXER,CAFE_FLR_1 RETURN AIR INLET,DOAS SYSTEM 1 DEMAND OUTLET NODE,DOAS SYSTEM 1
     Return Air Path Component Nodes,7,AIRLOOPHVAC:ZONEMIXER,DOAS SYSTEM 1 ZONE MIXER,LOBBY_FLR_1 RETURN AIR INLET,DOAS SYSTEM 1 DEMAND OUTLET NODE,DOAS SYSTEM 1
! <#Nodes on Return Air Path>,<Number of Nodes>
! <Return Air Path Node>,<Node Type>,<Node Count>,<Node Name>,<AirLoopHVAC Name>
   #Nodes on Return Air Path,8
   Return Air Path Node,Outlet Node,1,DOAS SYSTEM 1 DEMAND OUTLET NODE,DOAS SYSTEM 1
   Return Air Path Node,Inlet Node,2,RETAIL_1_FLR_1 RETURN AIR INLET,DOAS SYSTEM 1
   Return Air Path Node,Inlet Node,3,RETAIL_2_FLR_1 RETURN AIR INLET,DOAS SYSTEM 1
   Return Air Path Node,Inlet Node,4,MECH_FLR_1 RETURN AIR INLET,DOAS SYSTEM 1
   Return Air Path Node,Inlet Node,5,STORAGE_FLR_1 RETURN AIR INLET,DOAS SYSTEM 1
   Return Air Path Node,Inlet Node,6,LAUNDRY_FLR_1 RETURN AIR INLET,DOAS SYSTEM 1
   Return Air Path Node,Inlet Node,7,CAFE_FLR_1 RETURN AIR INLET,DOAS SYSTEM 1
   Return Air Path Node,Inlet Node,8,LOBBY_FLR_1 RETURN AIR INLET,DOAS SYSTEM 1
 Return Air Path,3,DOAS SYSTEM 3 RETURN PATH,DOAS SYSTEM 3
   #Components on Return Air Path,1
   Return Air Path Component,1,AIRLOOPHVAC:ZONEMIXER,DOAS SYSTEM 3 ZONE MIXER,DOAS SYSTEM 3
     #Inlet Nodes on Return Air Path Component,7
     Return Air Path Component Nodes,1,AIRLOOPHVAC:ZONEMIXER,DOAS SYSTEM 3 ZONE MIXER,ROOM_1_FLR_3 RETURN AIR INLET,DOAS SYSTEM 3 DEMAND OUTLET NODE,DOAS SYSTEM 3
     Return Air Path Component Nodes,2,AIRLOOPHVAC:ZONEMIXER,DOAS SYSTEM 3 ZONE MIXER,ROOM_2_FLR_3 RETURN AIR INLET,DOAS SYSTEM 3 DEMAND OUTLET NODE,DOAS SYSTEM 3
     Return Air Path Component Nodes,3,AIRLOOPHVAC:ZONEMIXER,DOAS SYSTEM 3 ZONE MIXER,ROOM_3_MULT19_FLR_3 RETURN AIR INLET,DOAS SYSTEM 3 DEMAND OUTLET NODE,DOAS SYSTEM 3
     Return Air Path Component Nodes,4,AIRLOOPHVAC:ZONEMIXER,DOAS SYSTEM 3 ZONE MIXER,ROOM_4_MULT19_FLR_3 RETURN AIR INLET,DOAS SYSTEM 3 DEMAND OUTLET NODE,DOAS SYSTEM 3
     Return Air Path Component Nodes,5,AIRLOOPHVAC:ZONEMIXER,DOAS SYSTEM 3 ZONE MIXER,ROOM_5_FLR_3 RETURN AIR INLET,DOAS SYSTEM 3 DEMAND OUTLET NODE,DOAS SYSTEM 3
     Return Air Path Component Nodes,6,AIRLOOPHVAC:ZONEMIXER,DOAS SYSTEM 3 ZONE MIXER,ROOM_6_FLR_3 RETURN AIR INLET,DOAS SYSTEM 3 DEMAND OUTLET NODE,DOAS SYSTEM 3
     Return Air Path Component Nodes,7,AIRLOOPHVAC:ZONEMIXER,DOAS SYSTEM 3 ZONE MIXER,CORRIDOR_FLR_3 RETURN AIR INLET,DOAS SYSTEM 3 DEMAND OUTLET NODE,DOAS SYSTEM 3
! <#Nodes on Return Air Path>,<Number of Nodes>
! <Return Air Path Node>,<Node Type>,<Node Count>,<Node Name>,<AirLoopHVAC Name>
   #Nodes on Return Air Path,8
   Return Air Path Node,Outlet Node,1,DOAS SYSTEM 3 DEMAND OUTLET NODE,DOAS SYSTEM 3
   Return Air Path Node,Inlet Node,2,ROOM_1_FLR_3 RETURN AIR INLET,DOAS SYSTEM 3
   Return Air Path Node,Inlet Node,3,ROOM_2_FLR_3 RETURN AIR INLET,DOAS SYSTEM 3
   Return Air Path Node,Inlet Node,4,ROOM_3_MULT19_FLR_3 RETURN AIR INLET,DOAS SYSTEM 3
   Return Air Path Node,Inlet Node,5,ROOM_4_MULT19_FLR_3 RETURN AIR INLET,DOAS SYSTEM 3
   Return Air Path Node,Inlet Node,6,ROOM_5_FLR_3 RETURN AIR INLET,DOAS SYSTEM 3
   Return Air Path Node,Inlet Node,7,ROOM_6_FLR_3 RETURN AIR INLET,DOAS SYSTEM 3
   Return Air Path Node,Inlet Node,8,CORRIDOR_FLR_3 RETURN AIR INLET,DOAS SYSTEM 3
 Return Air Path,4,DOAS SYSTEM 6 RETURN PATH,DOAS SYSTEM 6
   #Components on Return Air Path,1
   Return Air Path Component,1,AIRLOOPHVAC:ZONEMIXER,DOAS SYSTEM 6 ZONE MIXER,DOAS SYSTEM 6
     #Inlet Nodes on Return Air Path Component,7
     Return Air Path Component Nodes,1,AIRLOOPHVAC:ZONEMIXER,DOAS SYSTEM 6 ZONE MIXER,ROOM_1_FLR_6 RETURN AIR INLET,DOAS SYSTEM 6 DEMAND OUTLET NODE,DOAS SYSTEM 6
     Return Air Path Component Nodes,2,AIRLOOPHVAC:ZONEMIXER,DOAS SYSTEM 6 ZONE MIXER,ROOM_2_FLR_6 RETURN AIR INLET,DOAS SYSTEM 6 DEMAND OUTLET NODE,DOAS SYSTEM 6
     Return Air Path Component Nodes,3,AIRLOOPHVAC:ZONEMIXER,DOAS SYSTEM 6 ZONE MIXER,ROOM_3_MULT9_FLR_6 RETURN AIR INLET,DOAS SYSTEM 6 DEMAND OUTLET NODE,DOAS SYSTEM 6
     Return Air Path Component Nodes,4,AIRLOOPHVAC:ZONEMIXER,DOAS SYSTEM 6 ZONE MIXER,BANQUET_FLR_6 RETURN AIR INLET,DOAS SYSTEM 6 DEMAND OUTLET NODE,DOAS SYSTEM 6
     Return Air Path Component Nodes,5,AIRLOOPHVAC:ZONEMIXER,DOAS SYSTEM 6 ZONE MIXER,DINING_FLR_6 RETURN AIR INLET,DOAS SYSTEM 6 DEMAND OUTLET NODE,DOAS SYSTEM 6
     Return Air Path Component Nodes,6,AIRLOOPHVAC:ZONEMIXER,DOAS SYSTEM 6 ZONE MIXER,KITCHEN_FLR_6 RETURN AIR INLET,DOAS SYSTEM 6 DEMAND OUTLET NODE,DOAS SYSTEM 6
     Return Air Path Component Nodes,7,AIRLOOPHVAC:ZONEMIXER,DOAS SYSTEM 6 ZONE MIXER,CORRIDOR_FLR_6 RETURN AIR INLET,DOAS SYSTEM 6 DEMAND OUTLET NODE,DOAS SYSTEM 6
! <#Nodes on Return Air Path>,<Number of Nodes>
! <Return Air Path Node>,<Node Type>,<Node Count>,<Node Name>,<AirLoopHVAC Name>
   #Nodes on Return Air Path,8
   Return Air Path Node,Outlet Node,1,DOAS SYSTEM 6 DEMAND OUTLET NODE,DOAS SYSTEM 6
   Return Air Path Node,Inlet Node,2,ROOM_1_FLR_6 RETURN AIR INLET,DOAS SYSTEM 6
   Return Air Path Node,Inlet Node,3,ROOM_2_FLR_6 RETURN AIR INLET,DOAS SYSTEM 6
   Return Air Path Node,Inlet Node,4,ROOM_3_MULT9_FLR_6 RETURN AIR INLET,DOAS SYSTEM 6
   Return Air Path Node,Inlet Node,5,BANQUET_FLR_6 RETURN AIR INLET,DOAS SYSTEM 6
   Return Air Path Node,Inlet Node,6,DINING_FLR_6 RETURN AIR INLET,DOAS SYSTEM 6
   Return Air Path Node,Inlet Node,7,KITCHEN_FLR_6 RETURN AIR INLET,DOAS SYSTEM 6
   Return Air Path Node,Inlet Node,8,CORRIDOR_FLR_6 RETURN AIR INLET,DOAS SYSTEM 6
! ===============================================================
! #Outdoor Air Nodes,<Number of Outdoor Air Nodes>
 #Outdoor Air Nodes,26
! <Outdoor Air Node>,<NodeNumber>,<Node Name>
 Outdoor Air Node,281,DOAS SYSTEM 0 OUTDOOR AIR SYSTEM CONTROLLER OUTDOOR_AIR_INLET
 Outdoor Air Node,282,BASEMENT FOURPIPEFANCOIL OA MIXER OUTDOOR AIR NODE
 Outdoor Air Node,283,DOAS SYSTEM 1 OUTDOOR AIR SYSTEM CONTROLLER OUTDOOR_AIR_INLET
 Outdoor Air Node,284,RETAIL_1_FLR_1 FOURPIPEFANCOIL OA MIXER OUTDOOR AIR NODE
 Outdoor Air Node,285,RETAIL_2_FLR_1 FOURPIPEFANCOIL OA MIXER OUTDOOR AIR NODE
 Outdoor Air Node,286,MECH_FLR_1 FOURPIPEFANCOIL OA MIXER OUTDOOR AIR NODE
 Outdoor Air Node,287,STORAGE_FLR_1 FOURPIPEFANCOIL OA MIXER OUTDOOR AIR NODE
 Outdoor Air Node,288,LAUNDRY_FLR_1 FOURPIPEFANCOIL OA MIXER OUTDOOR AIR NODE
 Outdoor Air Node,289,CAFE_FLR_1 FOURPIPEFANCOIL OA MIXER OUTDOOR AIR NODE
 Outdoor Air Node,290,LOBBY_FLR_1 FOURPIPEFANCOIL OA MIXER OUTDOOR AIR NODE
 Outdoor Air Node,291,DOAS SYSTEM 3 OUTDOOR AIR SYSTEM CONTROLLER OUTDOOR_AIR_INLET
 Outdoor Air Node,292,ROOM_1_FLR_3 FOURPIPEFANCOIL OA MIXER OUTDOOR AIR NODE
 Outdoor Air Node,293,ROOM_2_FLR_3 FOURPIPEFANCOIL OA MIXER OUTDOOR AIR NODE
 Outdoor Air Node,294,ROOM_3_MULT19_FLR_3 FOURPIPEFANCOIL OA MIXER OUTDOOR AIR NODE
 Outdoor Air Node,295,ROOM_4_MULT19_FLR_3 FOURPIPEFANCOIL OA MIXER OUTDOOR AIR NODE
 Outdoor Air Node,296,ROOM_5_FLR_3 FOURPIPEFANCOIL OA MIXER OUTDOOR AIR NODE
 Outdoor Air Node,297,ROOM_6_FLR_3 FOURPIPEFANCOIL OA MIXER OUTDOOR AIR NODE
 Outdoor Air Node,298,CORRIDOR_FLR_3 FOURPIPEFANCOIL OA MIXER OUTDOOR AIR NODE
 Outdoor Air Node,299,DOAS SYSTEM 6 OUTDOOR AIR SYSTEM CONTROLLER OUTDOOR_AIR_INLET
 Outdoor Air Node,300,ROOM_1_FLR_6 FOURPIPEFANCOIL OA MIXER OUTDOOR AIR NODE
 Outdoor Air Node,301,ROOM_2_FLR_6 FOURPIPEFANCOIL OA MIXER OUTDOOR AIR NODE
 Outdoor Air Node,302,ROOM_3_MULT9_FLR_6 FOURPIPEFANCOIL OA MIXER OUTDOOR AIR NODE
 Outdoor Air Node,303,BANQUET_FLR_6 FOURPIPEFANCOIL OA MIXER OUTDOOR AIR NODE
 Outdoor Air Node,304,DINING_FLR_6 FOURPIPEFANCOIL OA MIXER OUTDOOR AIR NODE
 Outdoor Air Node,305,KITCHEN_FLR_6 FOURPIPEFANCOIL OA MIXER OUTDOOR AIR NODE
 Outdoor Air Node,306,CORRIDOR_FLR_6 FOURPIPEFANCOIL OA MIXER OUTDOOR AIR NODE
! ===============================================================
! <#Component Sets>,<Number of Component Sets>
 #Component Sets,202
! <Component Set>,<Component Set Count>,<Parent Object Type>,<Parent Object Name>,<Component Type>,<Component Name>,<Inlet Node ID>,<Outlet Node ID>,<Description>
 Component Set,1,BRANCH,DOAS SYSTEM 0 MAIN BRANCH,AIRLOOPHVAC:OUTDOORAIRSYSTEM,DOAS SYSTEM 0 OUTDOOR AIR SYSTEM,DOAS SYSTEM 0 SUPPLY INLET NODE,DOAS SYSTEM 0 OUTDOOR AIR SYSTEM CONTROLLER MIXED_AIR,Air Nodes
 Component Set,2,BRANCH,DOAS SYSTEM 0 MAIN BRANCH,COIL:COOLING:WATER,AHU COOLING COIL 0,DOAS SYSTEM 0 OUTDOOR AIR SYSTEM CONTROLLER MIXED_AIR,AHU COOLING COIL 0_AIR_OUTLET,Air Nodes
 Component Set,3,BRANCH,DOAS SYSTEM 0 MAIN BRANCH,COIL:HEATING:WATER,AHU HEATING COIL 0,AHU COOLING COIL 0_AIR_OUTLET,FAN 0 AIR INLET,Air Nodes
 Component Set,4,BRANCH,DOAS SYSTEM 0 MAIN BRANCH,FAN:VARIABLEVOLUME,FAN 0,FAN 0 AIR INLET,DOAS SYSTEM 0 SUPPLY OUTLET NODE,Air Nodes
 Component Set,5,BRANCH,DOAS SYSTEM 1 MAIN BRANCH,AIRLOOPHVAC:OUTDOORAIRSYSTEM,DOAS SYSTEM 1 OUTDOOR AIR SYSTEM,DOAS SYSTEM 1 SUPPLY INLET NODE,DOAS SYSTEM 1 OUTDOOR AIR SYSTEM CONTROLLER MIXED_AIR,Air Nodes
 Component Set,6,BRANCH,DOAS SYSTEM 1 MAIN BRANCH,COIL:COOLING:WATER,AHU COOLING COIL 1,DOAS SYSTEM 1 OUTDOOR AIR SYSTEM CONTROLLER MIXED_AIR,AHU COOLING COIL 1_AIR_OUTLET,Air Nodes
 Component Set,7,BRANCH,DOAS SYSTEM 1 MAIN BRANCH,COIL:HEATING:WATER,AHU HEATING COIL 1,AHU COOLING COIL 1_AIR_OUTLET,FAN 1 AIR INLET,Air Nodes
 Component Set,8,BRANCH,DOAS SYSTEM 1 MAIN BRANCH,FAN:VARIABLEVOLUME,FAN 1,FAN 1 AIR INLET,DOAS SYSTEM 1 SUPPLY OUTLET NODE,Air Nodes
 Component Set,9,BRANCH,DOAS SYSTEM 3 MAIN BRANCH,AIRLOOPHVAC:OUTDOORAIRSYSTEM,DOAS SYSTEM 3 OUTDOOR AIR SYSTEM,DOAS SYSTEM 3 SUPPLY INLET NODE,DOAS SYSTEM 3 OUTDOOR AIR SYSTEM CONTROLLER MIXED_AIR,Air Nodes
 Component Set,10,BRANCH,DOAS SYSTEM 3 MAIN BRANCH,COIL:COOLING:WATER,AHU COOLING COIL 3,DOAS SYSTEM 3 OUTDOOR AIR SYSTEM CONTROLLER MIXED_AIR,AHU COOLING COIL 3_AIR_OUTLET,Air Nodes
 Component Set,11,BRANCH,DOAS SYSTEM 3 MAIN BRANCH,COIL:HEATING:WATER,AHU HEATING COIL 3,AHU COOLING COIL 3_AIR_OUTLET,FAN 3 AIR INLET,Air Nodes
 Component Set,12,BRANCH,DOAS SYSTEM 3 MAIN BRANCH,FAN:VARIABLEVOLUME,FAN 3,FAN 3 AIR INLET,DOAS SYSTEM 3 SUPPLY OUTLET NODE,Air Nodes
 Component Set,13,BRANCH,DOAS SYSTEM 6 MAIN BRANCH,AIRLOOPHVAC:OUTDOORAIRSYSTEM,DOAS SYSTEM 6 OUTDOOR AIR SYSTEM,DOAS SYSTEM 6 SUPPLY INLET NODE,DOAS SYSTEM 6 OUTDOOR AIR SYSTEM CONTROLLER MIXED_AIR,Air Nodes
 Component Set,14,BRANCH,DOAS SYSTEM 6 MAIN BRANCH,COIL:COOLING:WATER,AHU COOLING COIL 6,DOAS SYSTEM 6 OUTDOOR AIR SYSTEM CONTROLLER MIXED_AIR,AHU COOLING COIL 6_AIR_OUTLET,Air Nodes
 Component Set,15,BRANCH,DOAS SYSTEM 6 MAIN BRANCH,COIL:HEATING:WATER,AHU HEATING COIL 6,AHU COOLING COIL 6_AIR_OUTLET,FAN 6 AIR INLET,Air Nodes
 Component Set,16,BRANCH,DOAS SYSTEM 6 MAIN BRANCH,FAN:VARIABLEVOLUME,FAN 6,FAN 6 AIR INLET,DOAS SYSTEM 6 SUPPLY OUTLET NODE,Air Nodes
 Component Set,17,BRANCH,YMCA CHILLED WATER LOOP SUPPLY INLET BRANCH,PIPE:ADIABATIC,YMCA CHILLED WATER LOOP SUPPLY INLET BRANCH PIPE,YMCA CHILLED WATER LOOP SUPPLY INLET,YMCA CHILLED WATER LOOP SUPPLY INLET BRANCH PIPE_OUTLET,Pipe Nodes
 Component Set,18,BRANCH,YMCA CHILLED WATER LOOP SUPPLY BRANCH 1,PUMP:VARIABLESPEED,CHW PUMP 1,CHW PUMP 1_WATER_INLET,CHILLER 1 CHILLED_WATER_INLET,Water Nodes
 Component Set,19,BRANCH,YMCA CHILLED WATER LOOP SUPPLY BRANCH 1,CHILLER:ELECTRIC:EIR,CHILLER 1,CHILLER 1 CHILLED_WATER_INLET,CHILLER 1 CHILLED_WATER_OUTLET,Chilled Water Nodes
 Component Set,20,BRANCH,YMCA CHILLED WATER LOOP SUPPLY BRANCH 2,PUMP:VARIABLESPEED,CHW PUMP 2,CHW PUMP 2_WATER_INLET,CHILLER 2 CHILLED_WATER_INLET,Water Nodes
 Component Set,21,BRANCH,YMCA CHILLED WATER LOOP SUPPLY BRANCH 2,CHILLER:ELECTRIC:EIR,CHILLER 2,CHILLER 2 CHILLED_WATER_INLET,CHILLER 2 CHILLED_WATER_OUTLET,Chilled Water Nodes
 Component Set,22,BRANCH,YMCA CHILLED WATER LOOP SUPPLY OUTLET BRANCH,PIPE:ADIABATIC,YMCA CHILLED WATER LOOP SUPPLY OUTLET BRANCH PIPE,YMCA CHILLED WATER LOOP SUPPLY OUTLET BRANCH PIPE_INLET,YMCA CHILLED WATER LOOP SUPPLY OUTLET,Pipe Nodes
 Component Set,23,BRANCH,YMCA CHILLED WATER LOOP DEMAND INLET BRANCH,PIPE:ADIABATIC,YMCA CHILLED WATER LOOP DEMAND INLET BRANCH PIPE,YMCA CHILLED WATER LOOP DEMAND INLET,YMCA CHILLED WATER LOOP DEMAND INLET BRANCH PIPE_OUTLET,Pipe Nodes
 Component Set,24,BRANCH,YMCA CHILLED WATER LOOP DEMAND BRANCH 1,COIL:COOLING:WATER,AHU COOLING COIL 0,AHU COOLING COIL 0_WATER_INLET,AHU COOLING COIL 0_WATER_OUTLET,Water Nodes
 Component Set,25,BRANCH,YMCA CHILLED WATER LOOP DEMAND BRANCH 2,COIL:COOLING:WATER,BASEMENT FOURPIPEFANCOIL COOLING COIL,BASEMENT FOURPIPEFANCOIL COOLING COIL_WATER_INLET,BASEMENT FOURPIPEFANCOIL COOLING COIL_WATER_OUTLET,Water Nodes
 Component Set,26,BRANCH,YMCA CHILLED WATER LOOP DEMAND BRANCH 3,COIL:COOLING:WATER,AHU COOLING COIL 1,AHU COOLING COIL 1_WATER_INLET,AHU COOLING COIL 1_WATER_OUTLET,Water Nodes
 Component Set,27,BRANCH,YMCA CHILLED WATER LOOP DEMAND BRANCH 4,COIL:COOLING:WATER,RETAIL_1_FLR_1 FOURPIPEFANCOIL COOLING COIL,RETAIL_1_FLR_1 FOURPIPEFANCOIL COOLING COIL_WATER_INLET,RETAIL_1_FLR_1 FOURPIPEFANCOIL COOLING COIL_WATER_OUTLET,Water Nodes
 Component Set,28,BRANCH,YMCA CHILLED WATER LOOP DEMAND BRANCH 5,COIL:COOLING:WATER,RETAIL_2_FLR_1 FOURPIPEFANCOIL COOLING COIL,RETAIL_2_FLR_1 FOURPIPEFANCOIL COOLING COIL_WATER_INLET,RETAIL_2_FLR_1 FOURPIPEFANCOIL COOLING COIL_WATER_OUTLET,Water Nodes
 Component Set,29,BRANCH,YMCA CHILLED WATER LOOP DEMAND BRANCH 6,COIL:COOLING:WATER,MECH_FLR_1 FOURPIPEFANCOIL COOLING COIL,MECH_FLR_1 FOURPIPEFANCOIL COOLING COIL_WATER_INLET,MECH_FLR_1 FOURPIPEFANCOIL COOLING COIL_WATER_OUTLET,Water Nodes
 Component Set,30,BRANCH,YMCA CHILLED WATER LOOP DEMAND BRANCH 7,COIL:COOLING:WATER,STORAGE_FLR_1 FOURPIPEFANCOIL COOLING COIL,STORAGE_FLR_1 FOURPIPEFANCOIL COOLING COIL_WATER_INLET,STORAGE_FLR_1 FOURPIPEFANCOIL COOLING COIL_WATER_OUTLET,Water Nodes
 Component Set,31,BRANCH,YMCA CHILLED WATER LOOP DEMAND BRANCH 8,COIL:COOLING:WATER,LAUNDRY_FLR_1 FOURPIPEFANCOIL COOLING COIL,LAUNDRY_FLR_1 FOURPIPEFANCOIL COOLING COIL_WATER_INLET,LAUNDRY_FLR_1 FOURPIPEFANCOIL COOLING COIL_WATER_OUTLET,Water Nodes
 Component Set,32,BRANCH,YMCA CHILLED WATER LOOP DEMAND BRANCH 9,COIL:COOLING:WATER,CAFE_FLR_1 FOURPIPEFANCOIL COOLING COIL,CAFE_FLR_1 FOURPIPEFANCOIL COOLING COIL_WATER_INLET,CAFE_FLR_1 FOURPIPEFANCOIL COOLING COIL_WATER_OUTLET,Water Nodes
 Component Set,33,BRANCH,YMCA CHILLED WATER LOOP DEMAND BRANCH 10,COIL:COOLING:WATER,LOBBY_FLR_1 FOURPIPEFANCOIL COOLING COIL,LOBBY_FLR_1 FOURPIPEFANCOIL COOLING COIL_WATER_INLET,LOBBY_FLR_1 FOURPIPEFANCOIL COOLING COIL_WATER_OUTLET,Water Nodes
 Component Set,34,BRANCH,YMCA CHILLED WATER LOOP DEMAND BRANCH 11,COIL:COOLING:WATER,AHU COOLING COIL 3,AHU COOLING COIL 3_WATER_INLET,AHU COOLING COIL 3_WATER_OUTLET,Water Nodes
 Component Set,35,BRANCH,YMCA CHILLED WATER LOOP DEMAND BRANCH 12,COIL:COOLING:WATER,ROOM_1_FLR_3 FOURPIPEFANCOIL COOLING COIL,ROOM_1_FLR_3 FOURPIPEFANCOIL COOLING COIL_WATER_INLET,ROOM_1_FLR_3 FOURPIPEFANCOIL COOLING COIL_WATER_OUTLET,Water Nodes
 Component Set,36,BRANCH,YMCA CHILLED WATER LOOP DEMAND BRANCH 13,COIL:COOLING:WATER,ROOM_2_FLR_3 FOURPIPEFANCOIL COOLING COIL,ROOM_2_FLR_3 FOURPIPEFANCOIL COOLING COIL_WATER_INLET,ROOM_2_FLR_3 FOURPIPEFANCOIL COOLING COIL_WATER_OUTLET,Water Nodes
 Component Set,37,BRANCH,YMCA CHILLED WATER LOOP DEMAND BRANCH 14,COIL:COOLING:WATER,ROOM_3_MULT19_FLR_3 FOURPIPEFANCOIL COOLING COIL,ROOM_3_MULT19_FLR_3 FOURPIPEFANCOIL COOLING COIL_WATER_INLET,ROOM_3_MULT19_FLR_3 FOURPIPEFANCOIL COOLING COIL_WATER_OUTLET,Water Nodes
 Component Set,38,BRANCH,YMCA CHILLED WATER LOOP DEMAND BRANCH 15,COIL:COOLING:WATER,ROOM_4_MULT19_FLR_3 FOURPIPEFANCOIL COOLING COIL,ROOM_4_MULT19_FLR_3 FOURPIPEFANCOIL COOLING COIL_WATER_INLET,ROOM_4_MULT19_FLR_3 FOURPIPEFANCOIL COOLING COIL_WATER_OUTLET,Water Nodes
 Component Set,39,BRANCH,YMCA CHILLED WATER LOOP DEMAND BRANCH 16,COIL:COOLING:WATER,ROOM_5_FLR_3 FOURPIPEFANCOIL COOLING COIL,ROOM_5_FLR_3 FOURPIPEFANCOIL COOLING COIL_WATER_INLET,ROOM_5_FLR_3 FOURPIPEFANCOIL COOLING COIL_WATER_OUTLET,Water Nodes
 Component Set,40,BRANCH,YMCA CHILLED WATER LOOP DEMAND BRANCH 17,COIL:COOLING:WATER,ROOM_6_FLR_3 FOURPIPEFANCOIL COOLING COIL,ROOM_6_FLR_3 FOURPIPEFANCOIL COOLING COIL_WATER_INLET,ROOM_6_FLR_3 FOURPIPEFANCOIL COOLING COIL_WATER_OUTLET,Water Nodes
 Component Set,41,BRANCH,YMCA CHILLED WATER LOOP DEMAND BRANCH 18,COIL:COOLING:WATER,CORRIDOR_FLR_3 FOURPIPEFANCOIL COOLING COIL,CORRIDOR_FLR_3 FOURPIPEFANCOIL COOLING COIL_WATER_INLET,CORRIDOR_FLR_3 FOURPIPEFANCOIL COOLING COIL_WATER_OUTLET,Water Nodes
 Component Set,42,BRANCH,YMCA CHILLED WATER LOOP DEMAND BRANCH 19,COIL:COOLING:WATER,AHU COOLING COIL 6,AHU COOLING COIL 6_WATER_INLET,AHU COOLING COIL 6_WATER_OUTLET,Water Nodes
 Component Set,43,BRANCH,YMCA CHILLED WATER LOOP DEMAND BRANCH 20,COIL:COOLING:WATER,ROOM_1_FLR_6 FOURPIPEFANCOIL COOLING COIL,ROOM_1_FLR_6 FOURPIPEFANCOIL COOLING COIL_WATER_INLET,ROOM_1_FLR_6 FOURPIPEFANCOIL COOLING COIL_WATER_OUTLET,Water Nodes
 Component Set,44,BRANCH,YMCA CHILLED WATER LOOP DEMAND BRANCH 21,COIL:COOLING:WATER,ROOM_2_FLR_6 FOURPIPEFANCOIL COOLING COIL,ROOM_2_FLR_6 FOURPIPEFANCOIL COOLING COIL_WATER_INLET,ROOM_2_FLR_6 FOURPIPEFANCOIL COOLING COIL_WATER_OUTLET,Water Nodes
 Component Set,45,BRANCH,YMCA CHILLED WATER LOOP DEMAND BRANCH 22,COIL:COOLING:WATER,ROOM_3_MULT9_FLR_6 FOURPIPEFANCOIL COOLING COIL,ROOM_3_MULT9_FLR_6 FOURPIPEFANCOIL COOLING COIL_WATER_INLET,ROOM_3_MULT9_FLR_6 FOURPIPEFANCOIL COOLING COIL_WATER_OUTLET,Water Nodes
 Component Set,46,BRANCH,YMCA CHILLED WATER LOOP DEMAND BRANCH 23,COIL:COOLING:WATER,BANQUET_FLR_6 FOURPIPEFANCOIL COOLING COIL,BANQUET_FLR_6 FOURPIPEFANCOIL COOLING COIL_WATER_INLET,BANQUET_FLR_6 FOURPIPEFANCOIL COOLING COIL_WATER_OUTLET,Water Nodes
 Component Set,47,BRANCH,YMCA CHILLED WATER LOOP DEMAND BRANCH 24,COIL:COOLING:WATER,DINING_FLR_6 FOURPIPEFANCOIL COOLING COIL,DINING_FLR_6 FOURPIPEFANCOIL COOLING COIL_WATER_INLET,DINING_FLR_6 FOURPIPEFANCOIL COOLING COIL_WATER_OUTLET,Water Nodes
 Component Set,48,BRANCH,YMCA CHILLED WATER LOOP DEMAND BRANCH 25,COIL:COOLING:WATER,KITCHEN_FLR_6 FOURPIPEFANCOIL COOLING COIL,KITCHEN_FLR_6 FOURPIPEFANCOIL COOLING COIL_WATER_INLET,KITCHEN_FLR_6 FOURPIPEFANCOIL COOLING COIL_WATER_OUTLET,Water Nodes
 Component Set,49,BRANCH,YMCA CHILLED WATER LOOP DEMAND BRANCH 26,COIL:COOLING:WATER,CORRIDOR_FLR_6 FOURPIPEFANCOIL COOLING COIL,CORRIDOR_FLR_6 FOURPIPEFANCOIL COOLING COIL_WATER_INLET,CORRIDOR_FLR_6 FOURPIPEFANCOIL COOLING COIL_WATER_OUTLET,Water Nodes
 Component Set,50,BRANCH,YMCA CHILLED WATER LOOP DEMAND OUTLET BRANCH,PIPE:ADIABATIC,YMCA CHILLED WATER LOOP DEMAND OUTLET BRANCH PIPE,YMCA CHILLED WATER LOOP DEMAND OUTLET BRANCH PIPE_INLET,YMCA CHILLED WATER LOOP DEMAND OUTLET,Pipe Nodes
 Component Set,51,BRANCH,YMCA CONDENSER WATER LOOP SUPPLY INLET BRANCH,PUMP:VARIABLESPEED,CW PUMP,YMCA CONDENSER WATER LOOP SUPPLY INLET,CW PUMP_WATER_OUTLET,Water Nodes
 Component Set,52,BRANCH,YMCA CONDENSER WATER LOOP SUPPLY BRANCH 1,COOLINGTOWER:SINGLESPEED,COOLING TOWER 1,COOLING TOWER 1 WATER_INLET,COOLING TOWER 1 WATER_OUTLET,Chilled Water Nodes
 Component Set,53,BRANCH,YMCA CONDENSER WATER LOOP SUPPLY OUTLET BRANCH,PIPE:ADIABATIC,YMCA CONDENSER WATER LOOP SUPPLY OUTLET BRANCH PIPE,YMCA CONDENSER WATER LOOP SUPPLY OUTLET BRANCH PIPE_INLET,YMCA CONDENSER WATER LOOP SUPPLY OUTLET,Pipe Nodes
 Component Set,54,BRANCH,YMCA CONDENSER WATER LOOP DEMAND INLET BRANCH,PIPE:ADIABATIC,YMCA CONDENSER WATER LOOP DEMAND INLET BRANCH PIPE,YMCA CONDENSER WATER LOOP DEMAND INLET,YMCA CONDENSER WATER LOOP DEMAND INLET BRANCH PIPE_OUTLET,Pipe Nodes
 Component Set,55,BRANCH,YMCA CONDENSER WATER LOOP DEMAND BRANCH 1,CHILLER:ELECTRIC:EIR,CHILLER 1,CHILLER 1 CONDENSER_WATER_INLET,CHILLER 1 CONDENSER_WATER_OUTLET,Condenser Water Nodes
 Component Set,56,BRANCH,YMCA CONDENSER WATER LOOP DEMAND BRANCH 2,CHILLER:ELECTRIC:EIR,CHILLER 2,CHILLER 2 CONDENSER_WATER_INLET,CHILLER 2 CONDENSER_WATER_OUTLET,Condenser Water Nodes
 Component Set,57,BRANCH,YMCA CONDENSER WATER LOOP DEMAND OUTLET BRANCH,PIPE:ADIABATIC,YMCA CONDENSER WATER LOOP DEMAND OUTLET BRANCH PIPE,YMCA CONDENSER WATER LOOP DEMAND OUTLET BRANCH PIPE_INLET,YMCA CONDENSER WATER LOOP DEMAND OUTLET,Pipe Nodes
 Component Set,58,BRANCH,TEST HOT WATER LOOP SUPPLY INLET BRANCH,PUMP:VARIABLESPEED,HW PUMP,TEST HOT WATER LOOP SUPPLY INLET,HW PUMP_WATER_OUTLET,Water Nodes
 Component Set,59,BRANCH,TEST HOT WATER LOOP SUPPLY BRANCH 1,DISTRICTHEATING:WATER,DISTRICT HEATING,DISTRICT HEATING HOT_WATER_INLET,DISTRICT HEATING HOT_WATER_OUTLET,Hot Water Nodes
 Component Set,60,BRANCH,TEST HOT WATER LOOP SUPPLY OUTLET BRANCH,PIPE:ADIABATIC,TEST HOT WATER LOOP SUPPLY OUTLET BRANCH PIPE,TEST HOT WATER LOOP SUPPLY OUTLET BRANCH PIPE_INLET,TEST HOT WATER LOOP SUPPLY OUTLET,Pipe Nodes
 Component Set,61,BRANCH,TEST HOT WATER LOOP DEMAND INLET BRANCH,PIPE:ADIABATIC,TEST HOT WATER LOOP DEMAND INLET BRANCH PIPE,TEST HOT WATER LOOP DEMAND INLET,TEST HOT WATER LOOP DEMAND INLET BRANCH PIPE_OUTLET,Pipe Nodes
 Component Set,62,BRANCH,TEST HOT WATER LOOP DEMAND BRANCH 1,COIL:HEATING:WATER,AHU HEATING COIL 0,AHU HEATING COIL 0_WATER_INLET,AHU HEATING COIL 0_WATER_OUTLET,Water Nodes
 Component Set,63,BRANCH,TEST HOT WATER LOOP DEMAND BRANCH 2,COIL:HEATING:WATER,BASEMENT FOURPIPEFANCOIL HEATING COIL,BASEMENT FOURPIPEFANCOIL HEATING COIL_WATER_INLET,BASEMENT FOURPIPEFANCOIL HEATING COIL_WATER_OUTLET,Water Nodes
 Component Set,64,BRANCH,TEST HOT WATER LOOP DEMAND BRANCH 3,COIL:HEATING:WATER,AHU HEATING COIL 1,AHU HEATING COIL 1_WATER_INLET,AHU HEATING COIL 1_WATER_OUTLET,Water Nodes
 Component Set,65,BRANCH,TEST HOT WATER LOOP DEMAND BRANCH 4,COIL:HEATING:WATER,RETAIL_1_FLR_1 FOURPIPEFANCOIL HEATING COIL,RETAIL_1_FLR_1 FOURPIPEFANCOIL HEATING COIL_WATER_INLET,RETAIL_1_FLR_1 FOURPIPEFANCOIL HEATING COIL_WATER_OUTLET,Water Nodes
 Component Set,66,BRANCH,TEST HOT WATER LOOP DEMAND BRANCH 5,COIL:HEATING:WATER,RETAIL_2_FLR_1 FOURPIPEFANCOIL HEATING COIL,RETAIL_2_FLR_1 FOURPIPEFANCOIL HEATING COIL_WATER_INLET,RETAIL_2_FLR_1 FOURPIPEFANCOIL HEATING COIL_WATER_OUTLET,Water Nodes
 Component Set,67,BRANCH,TEST HOT WATER LOOP DEMAND BRANCH 6,COIL:HEATING:WATER,MECH_FLR_1 FOURPIPEFANCOIL HEATING COIL,MECH_FLR_1 FOURPIPEFANCOIL HEATING COIL_WATER_INLET,MECH_FLR_1 FOURPIPEFANCOIL HEATING COIL_WATER_OUTLET,Water Nodes
 Component Set,68,BRANCH,TEST HOT WATER LOOP DEMAND BRANCH 7,COIL:HEATING:WATER,STORAGE_FLR_1 FOURPIPEFANCOIL HEATING COIL,STORAGE_FLR_1 FOURPIPEFANCOIL HEATING COIL_WATER_INLET,STORAGE_FLR_1 FOURPIPEFANCOIL HEATING COIL_WATER_OUTLET,Water Nodes
 Component Set,69,BRANCH,TEST HOT WATER LOOP DEMAND BRANCH 8,COIL:HEATING:WATER,LAUNDRY_FLR_1 FOURPIPEFANCOIL HEATING COIL,LAUNDRY_FLR_1 FOURPIPEFANCOIL HEATING COIL_WATER_INLET,LAUNDRY_FLR_1 FOURPIPEFANCOIL HEATING COIL_WATER_OUTLET,Water Nodes
 Component Set,70,BRANCH,TEST HOT WATER LOOP DEMAND BRANCH 9,COIL:HEATING:WATER,CAFE_FLR_1 FOURPIPEFANCOIL HEATING COIL,CAFE_FLR_1 FOURPIPEFANCOIL HEATING COIL_WATER_INLET,CAFE_FLR_1 FOURPIPEFANCOIL HEATING COIL_WATER_OUTLET,Water Nodes
 Component Set,71,BRANCH,TEST HOT WATER LOOP DEMAND BRANCH 10,COIL:HEATING:WATER,LOBBY_FLR_1 FOURPIPEFANCOIL HEATING COIL,LOBBY_FLR_1 FOURPIPEFANCOIL HEATING COIL_WATER_INLET,LOBBY_FLR_1 FOURPIPEFANCOIL HEATING COIL_WATER_OUTLET,Water Nodes
 Component Set,72,BRANCH,TEST HOT WATER LOOP DEMAND BRANCH 11,COIL:HEATING:WATER,AHU HEATING COIL 3,AHU HEATING COIL 3_WATER_INLET,AHU HEATING COIL 3_WATER_OUTLET,Water Nodes
 Component Set,73,BRANCH,TEST HOT WATER LOOP DEMAND BRANCH 12,COIL:HEATING:WATER,ROOM_1_FLR_3 FOURPIPEFANCOIL HEATING COIL,ROOM_1_FLR_3 FOURPIPEFANCOIL HEATING COIL_WATER_INLET,ROOM_1_FLR_3 FOURPIPEFANCOIL HEATING COIL_WATER_OUTLET,Water Nodes
 Component Set,74,BRANCH,TEST HOT WATER LOOP DEMAND BRANCH 13,COIL:HEATING:WATER,ROOM_2_FLR_3 FOURPIPEFANCOIL HEATING COIL,ROOM_2_FLR_3 FOURPIPEFANCOIL HEATING COIL_WATER_INLET,ROOM_2_FLR_3 FOURPIPEFANCOIL HEATING COIL_WATER_OUTLET,Water Nodes
 Component Set,75,BRANCH,TEST HOT WATER LOOP DEMAND BRANCH 14,COIL:HEATING:WATER,ROOM_3_MULT19_FLR_3 FOURPIPEFANCOIL HEATING COIL,ROOM_3_MULT19_FLR_3 FOURPIPEFANCOIL HEATING COIL_WATER_INLET,ROOM_3_MULT19_FLR_3 FOURPIPEFANCOIL HEATING COIL_WATER_OUTLET,Water Nodes
 Component Set,76,BRANCH,TEST HOT WATER LOOP DEMAND BRANCH 15,COIL:HEATING:WATER,ROOM_4_MULT19_FLR_3 FOURPIPEFANCOIL HEATING COIL,ROOM_4_MULT19_FLR_3 FOURPIPEFANCOIL HEATING COIL_WATER_INLET,ROOM_4_MULT19_FLR_3 FOURPIPEFANCOIL HEATING COIL_WATER_OUTLET,Water Nodes
 Component Set,77,BRANCH,TEST HOT WATER LOOP DEMAND BRANCH 16,COIL:HEATING:WATER,ROOM_5_FLR_3 FOURPIPEFANCOIL HEATING COIL,ROOM_5_FLR_3 FOURPIPEFANCOIL HEATING COIL_WATER_INLET,ROOM_5_FLR_3 FOURPIPEFANCOIL HEATING COIL_WATER_OUTLET,Water Nodes
[...]
 Non-Parent Node Connection,ROOM_1_FLR_6 FOURPIPEFANCOIL CONST SPEED FAN FAN OUTLET NODE,COIL:COOLING:WATER,ROOM_1_FLR_6 FOURPIPEFANCOIL COOLING COIL,Inlet,1
 Non-Parent Node Connection,ROOM_1_FLR_6 FOURPIPEFANCOIL COOLING COIL COIL OUTLET NODE,COIL:COOLING:WATER,ROOM_1_FLR_6 FOURPIPEFANCOIL COOLING COIL,Outlet,1
 Non-Parent Node Connection,ROOM_2_FLR_6 FOURPIPEFANCOIL COOLING COIL_WATER_INLET,COIL:COOLING:WATER,ROOM_2_FLR_6 FOURPIPEFANCOIL COOLING COIL,Inlet,2
 Non-Parent Node Connection,ROOM_2_FLR_6 FOURPIPEFANCOIL COOLING COIL_WATER_OUTLET,COIL:COOLING:WATER,ROOM_2_FLR_6 FOURPIPEFANCOIL COOLING COIL,Outlet,2
 Non-Parent Node Connection,ROOM_2_FLR_6 FOURPIPEFANCOIL CONST SPEED FAN FAN OUTLET NODE,COIL:COOLING:WATER,ROOM_2_FLR_6 FOURPIPEFANCOIL COOLING COIL,Inlet,1
 Non-Parent Node Connection,ROOM_2_FLR_6 FOURPIPEFANCOIL COOLING COIL COIL OUTLET NODE,COIL:COOLING:WATER,ROOM_2_FLR_6 FOURPIPEFANCOIL COOLING COIL,Outlet,1
 Non-Parent Node Connection,ROOM_3_MULT9_FLR_6 FOURPIPEFANCOIL COOLING COIL_WATER_INLET,COIL:COOLING:WATER,ROOM_3_MULT9_FLR_6 FOURPIPEFANCOIL COOLING COIL,Inlet,2
 Non-Parent Node Connection,ROOM_3_MULT9_FLR_6 FOURPIPEFANCOIL COOLING COIL_WATER_OUTLET,COIL:COOLING:WATER,ROOM_3_MULT9_FLR_6 FOURPIPEFANCOIL COOLING COIL,Outlet,2
 Non-Parent Node Connection,ROOM_3_MULT9_FLR_6 FOURPIPEFANCOIL CONST SPEED FAN FAN OUTLET NODE,COIL:COOLING:WATER,ROOM_3_MULT9_FLR_6 FOURPIPEFANCOIL COOLING COIL,Inlet,1
 Non-Parent Node Connection,ROOM_3_MULT9_FLR_6 FOURPIPEFANCOIL COOLING COIL COIL OUTLET NODE,COIL:COOLING:WATER,ROOM_3_MULT9_FLR_6 FOURPIPEFANCOIL COOLING COIL,Outlet,1
 Non-Parent Node Connection,BANQUET_FLR_6 FOURPIPEFANCOIL COOLING COIL_WATER_INLET,COIL:COOLING:WATER,BANQUET_FLR_6 FOURPIPEFANCOIL COOLING COIL,Inlet,2
 Non-Parent Node Connection,BANQUET_FLR_6 FOURPIPEFANCOIL COOLING COIL_WATER_OUTLET,COIL:COOLING:WATER,BANQUET_FLR_6 FOURPIPEFANCOIL COOLING COIL,Outlet,2
 Non-Parent Node Connection,BANQUET_FLR_6 FOURPIPEFANCOIL CONST SPEED FAN FAN OUTLET NODE,COIL:COOLING:WATER,BANQUET_FLR_6 FOURPIPEFANCOIL COOLING COIL,Inlet,1
 Non-Parent Node Connection,BANQUET_FLR_6 FOURPIPEFANCOIL COOLING COIL COIL OUTLET NODE,COIL:COOLING:WATER,BANQUET_FLR_6 FOURPIPEFANCOIL COOLING COIL,Outlet,1
 Non-Parent Node Connection,DINING_FLR_6 FOURPIPEFANCOIL COOLING COIL_WATER_INLET,COIL:COOLING:WATER,DINING_FLR_6 FOURPIPEFANCOIL COOLING COIL,Inlet,2
 Non-Parent Node Connection,DINING_FLR_6 FOURPIPEFANCOIL COOLING COIL_WATER_OUTLET,COIL:COOLING:WATER,DINING_FLR_6 FOURPIPEFANCOIL COOLING COIL,Outlet,2
 Non-Parent Node Connection,DINING_FLR_6 FOURPIPEFANCOIL CONST SPEED FAN FAN OUTLET NODE,COIL:COOLING:WATER,DINING_FLR_6 FOURPIPEFANCOIL COOLING COIL,Inlet,1
 Non-Parent Node Connection,DINING_FLR_6 FOURPIPEFANCOIL COOLING COIL COIL OUTLET NODE,COIL:COOLING:WATER,DINING_FLR_6 FOURPIPEFANCOIL COOLING COIL,Outlet,1
 Non-Parent Node Connection,KITCHEN_FLR_6 FOURPIPEFANCOIL COOLING COIL_WATER_INLET,COIL:COOLING:WATER,KITCHEN_FLR_6 FOURPIPEFANCOIL COOLING COIL,Inlet,2
 Non-Parent Node Connection,KITCHEN_FLR_6 FOURPIPEFANCOIL COOLING COIL_WATER_OUTLET,COIL:COOLING:WATER,KITCHEN_FLR_6 FOURPIPEFANCOIL COOLING COIL,Outlet,2
 Non-Parent Node Connection,KITCHEN_FLR_6 FOURPIPEFANCOIL CONST SPEED FAN FAN OUTLET NODE,COIL:COOLING:WATER,KITCHEN_FLR_6 FOURPIPEFANCOIL COOLING COIL,Inlet,1
 Non-Parent Node Connection,KITCHEN_FLR_6 FOURPIPEFANCOIL COOLING COIL COIL OUTLET NODE,COIL:COOLING:WATER,KITCHEN_FLR_6 FOURPIPEFANCOIL COOLING COIL,Outlet,1
 Non-Parent Node Connection,CORRIDOR_FLR_6 FOURPIPEFANCOIL COOLING COIL_WATER_INLET,COIL:COOLING:WATER,CORRIDOR_FLR_6 FOURPIPEFANCOIL COOLING COIL,Inlet,2
 Non-Parent Node Connection,CORRIDOR_FLR_6 FOURPIPEFANCOIL COOLING COIL_WATER_OUTLET,COIL:COOLING:WATER,CORRIDOR_FLR_6 FOURPIPEFANCOIL COOLING COIL,Outlet,2
 Non-Parent Node Connection,CORRIDOR_FLR_6 FOURPIPEFANCOIL CONST SPEED FAN FAN OUTLET NODE,COIL:COOLING:WATER,CORRIDOR_FLR_6 FOURPIPEFANCOIL COOLING COIL,Inlet,1
 Non-Parent Node Connection,CORRIDOR_FLR_6 FOURPIPEFANCOIL COOLING COIL COIL OUTLET NODE,COIL:COOLING:WATER,CORRIDOR_FLR_6 FOURPIPEFANCOIL COOLING COIL,Outlet,1
 Non-Parent Node Connection,BASEMENT FOURPIPEFANCOIL OA MIXER MIXED AIR NODE,FAN:CONSTANTVOLUME,BASEMENT FOURPIPEFANCOIL CONST SPEED FAN,Inlet,1
 Non-Parent Node Connection,BASEMENT FOURPIPEFANCOIL CONST SPEED FAN FAN OUTLET NODE,FAN:CONSTANTVOLUME,BASEMENT FOURPIPEFANCOIL CONST SPEED FAN,Outlet,1
 Non-Parent Node Connection,RETAIL_1_FLR_1 FOURPIPEFANCOIL OA MIXER MIXED AIR NODE,FAN:CONSTANTVOLUME,RETAIL_1_FLR_1 FOURPIPEFANCOIL CONST SPEED FAN,Inlet,1
 Non-Parent Node Connection,RETAIL_1_FLR_1 FOURPIPEFANCOIL CONST SPEED FAN FAN OUTLET NODE,FAN:CONSTANTVOLUME,RETAIL_1_FLR_1 FOURPIPEFANCOIL CONST SPEED FAN,Outlet,1
 Non-Parent Node Connection,RETAIL_2_FLR_1 FOURPIPEFANCOIL OA MIXER MIXED AIR NODE,FAN:CONSTANTVOLUME,RETAIL_2_FLR_1 FOURPIPEFANCOIL CONST SPEED FAN,Inlet,1
 Non-Parent Node Connection,RETAIL_2_FLR_1 FOURPIPEFANCOIL CONST SPEED FAN FAN OUTLET NODE,FAN:CONSTANTVOLUME,RETAIL_2_FLR_1 FOURPIPEFANCOIL CONST SPEED FAN,Outlet,1
 Non-Parent Node Connection,MECH_FLR_1 FOURPIPEFANCOIL OA MIXER MIXED AIR NODE,FAN:CONSTANTVOLUME,MECH_FLR_1 FOURPIPEFANCOIL CONST SPEED FAN,Inlet,1
 Non-Parent Node Connection,MECH_FLR_1 FOURPIPEFANCOIL CONST SPEED FAN FAN OUTLET NODE,FAN:CONSTANTVOLUME,MECH_FLR_1 FOURPIPEFANCOIL CONST SPEED FAN,Outlet,1
 Non-Parent Node Connection,STORAGE_FLR_1 FOURPIPEFANCOIL OA MIXER MIXED AIR NODE,FAN:CONSTANTVOLUME,STORAGE_FLR_1 FOURPIPEFANCOIL CONST SPEED FAN,Inlet,1
 Non-Parent Node Connection,STORAGE_FLR_1 FOURPIPEFANCOIL CONST SPEED FAN FAN OUTLET NODE,FAN:CONSTANTVOLUME,STORAGE_FLR_1 FOURPIPEFANCOIL CONST SPEED FAN,Outlet,1
 Non-Parent Node Connection,LAUNDRY_FLR_1 FOURPIPEFANCOIL OA MIXER MIXED AIR NODE,FAN:CONSTANTVOLUME,LAUNDRY_FLR_1 FOURPIPEFANCOIL CONST SPEED FAN,Inlet,1
 Non-Parent Node Connection,LAUNDRY_FLR_1 FOURPIPEFANCOIL CONST SPEED FAN FAN OUTLET NODE,FAN:CONSTANTVOLUME,LAUNDRY_FLR_1 FOURPIPEFANCOIL CONST SPEED FAN,Outlet,1
 Non-Parent Node Connection,CAFE_FLR_1 FOURPIPEFANCOIL OA MIXER MIXED AIR NODE,FAN:CONSTANTVOLUME,CAFE_FLR_1 FOURPIPEFANCOIL CONST SPEED FAN,Inlet,1
 Non-Parent Node Connection,CAFE_FLR_1 FOURPIPEFANCOIL CONST SPEED FAN FAN OUTLET NODE,FAN:CONSTANTVOLUME,CAFE_FLR_1 FOURPIPEFANCOIL CONST SPEED FAN,Outlet,1
 Non-Parent Node Connection,LOBBY_FLR_1 FOURPIPEFANCOIL OA MIXER MIXED AIR NODE,FAN:CONSTANTVOLUME,LOBBY_FLR_1 FOURPIPEFANCOIL CONST SPEED FAN,Inlet,1
 Non-Parent Node Connection,LOBBY_FLR_1 FOURPIPEFANCOIL CONST SPEED FAN FAN OUTLET NODE,FAN:CONSTANTVOLUME,LOBBY_FLR_1 FOURPIPEFANCOIL CONST SPEED FAN,Outlet,1
 Non-Parent Node Connection,ROOM_1_FLR_3 FOURPIPEFANCOIL OA MIXER MIXED AIR NODE,FAN:CONSTANTVOLUME,ROOM_1_FLR_3 FOURPIPEFANCOIL CONST SPEED FAN,Inlet,1
 Non-Parent Node Connection,ROOM_1_FLR_3 FOURPIPEFANCOIL CONST SPEED FAN FAN OUTLET NODE,FAN:CONSTANTVOLUME,ROOM_1_FLR_3 FOURPIPEFANCOIL CONST SPEED FAN,Outlet,1
 Non-Parent Node Connection,ROOM_2_FLR_3 FOURPIPEFANCOIL OA MIXER MIXED AIR NODE,FAN:CONSTANTVOLUME,ROOM_2_FLR_3 FOURPIPEFANCOIL CONST SPEED FAN,Inlet,1
 Non-Parent Node Connection,ROOM_2_FLR_3 FOURPIPEFANCOIL CONST SPEED FAN FAN OUTLET NODE,FAN:CONSTANTVOLUME,ROOM_2_FLR_3 FOURPIPEFANCOIL CONST SPEED FAN,Outlet,1
 Non-Parent Node Connection,ROOM_3_MULT19_FLR_3 FOURPIPEFANCOIL OA MIXER MIXED AIR NODE,FAN:CONSTANTVOLUME,ROOM_3_MULT19_FLR_3 FOURPIPEFANCOIL CONST SPEED FAN,Inlet,1
 Non-Parent Node Connection,ROOM_3_MULT19_FLR_3 FOURPIPEFANCOIL CONST SPEED FAN FAN OUTLET NODE,FAN:CONSTANTVOLUME,ROOM_3_MULT19_FLR_3 FOURPIPEFANCOIL CONST SPEED FAN,Outlet,1
 Non-Parent Node Connection,ROOM_4_MULT19_FLR_3 FOURPIPEFANCOIL OA MIXER MIXED AIR NODE,FAN:CONSTANTVOLUME,ROOM_4_MULT19_FLR_3 FOURPIPEFANCOIL CONST SPEED FAN,Inlet,1
 Non-Parent Node Connection,ROOM_4_MULT19_FLR_3 FOURPIPEFANCOIL CONST SPEED FAN FAN OUTLET NODE,FAN:CONSTANTVOLUME,ROOM_4_MULT19_FLR_3 FOURPIPEFANCOIL CONST SPEED FAN,Outlet,1
 Non-Parent Node Connection,ROOM_5_FLR_3 FOURPIPEFANCOIL OA MIXER MIXED AIR NODE,FAN:CONSTANTVOLUME,ROOM_5_FLR_3 FOURPIPEFANCOIL CONST SPEED FAN,Inlet,1
 Non-Parent Node Connection,ROOM_5_FLR_3 FOURPIPEFANCOIL CONST SPEED FAN FAN OUTLET NODE,FAN:CONSTANTVOLUME,ROOM_5_FLR_3 FOURPIPEFANCOIL CONST SPEED FAN,Outlet,1
 Non-Parent Node Connection,ROOM_6_FLR_3 FOURPIPEFANCOIL OA MIXER MIXED AIR NODE,FAN:CONSTANTVOLUME,ROOM_6_FLR_3 FOURPIPEFANCOIL CONST SPEED FAN,Inlet,1
 Non-Parent Node Connection,ROOM_6_FLR_3 FOURPIPEFANCOIL CONST SPEED FAN FAN OUTLET NODE,FAN:CONSTANTVOLUME,ROOM_6_FLR_3 FOURPIPEFANCOIL CONST SPEED FAN,Outlet,1
 Non-Parent Node Connection,CORRIDOR_FLR_3 FOURPIPEFANCOIL OA MIXER MIXED AIR NODE,FAN:CONSTANTVOLUME,CORRIDOR_FLR_3 FOURPIPEFANCOIL CONST SPEED FAN,Inlet,1
 Non-Parent Node Connection,CORRIDOR_FLR_3 FOURPIPEFANCOIL CONST SPEED FAN FAN OUTLET NODE,FAN:CONSTANTVOLUME,CORRIDOR_FLR_3 FOURPIPEFANCOIL CONST SPEED FAN,Outlet,1
 Non-Parent Node Connection,ROOM_1_FLR_6 FOURPIPEFANCOIL OA MIXER MIXED AIR NODE,FAN:CONSTANTVOLUME,ROOM_1_FLR_6 FOURPIPEFANCOIL CONST SPEED FAN,Inlet,1
 Non-Parent Node Connection,ROOM_1_FLR_6 FOURPIPEFANCOIL CONST SPEED FAN FAN OUTLET NODE,FAN:CONSTANTVOLUME,ROOM_1_FLR_6 FOURPIPEFANCOIL CONST SPEED FAN,Outlet,1
 Non-Parent Node Connection,ROOM_2_FLR_6 FOURPIPEFANCOIL OA MIXER MIXED AIR NODE,FAN:CONSTANTVOLUME,ROOM_2_FLR_6 FOURPIPEFANCOIL CONST SPEED FAN,Inlet,1
 Non-Parent Node Connection,ROOM_2_FLR_6 FOURPIPEFANCOIL CONST SPEED FAN FAN OUTLET NODE,FAN:CONSTANTVOLUME,ROOM_2_FLR_6 FOURPIPEFANCOIL CONST SPEED FAN,Outlet,1
 Non-Parent Node Connection,ROOM_3_MULT9_FLR_6 FOURPIPEFANCOIL OA MIXER MIXED AIR NODE,FAN:CONSTANTVOLUME,ROOM_3_MULT9_FLR_6 FOURPIPEFANCOIL CONST SPEED FAN,Inlet,1
 Non-Parent Node Connection,ROOM_3_MULT9_FLR_6 FOURPIPEFANCOIL CONST SPEED FAN FAN OUTLET NODE,FAN:CONSTANTVOLUME,ROOM_3_MULT9_FLR_6 FOURPIPEFANCOIL CONST SPEED FAN,Outlet,1
 Non-Parent Node Connection,BANQUET_FLR_6 FOURPIPEFANCOIL OA MIXER MIXED AIR NODE,FAN:CONSTANTVOLUME,BANQUET_FLR_6 FOURPIPEFANCOIL CONST SPEED FAN,Inlet,1
 Non-Parent Node Connection,BANQUET_FLR_6 FOURPIPEFANCOIL CONST SPEED FAN FAN OUTLET NODE,FAN:CONSTANTVOLUME,BANQUET_FLR_6 FOURPIPEFANCOIL CONST SPEED FAN,Outlet,1
 Non-Parent Node Connection,DINING_FLR_6 FOURPIPEFANCOIL OA MIXER MIXED AIR NODE,FAN:CONSTANTVOLUME,DINING_FLR_6 FOURPIPEFANCOIL CONST SPEED FAN,Inlet,1
 Non-Parent Node Connection,DINING_FLR_6 FOURPIPEFANCOIL CONST SPEED FAN FAN OUTLET NODE,FAN:CONSTANTVOLUME,DINING_FLR_6 FOURPIPEFANCOIL CONST SPEED FAN,Outlet,1
 Non-Parent Node Connection,KITCHEN_FLR_6 FOURPIPEFANCOIL OA MIXER MIXED AIR NODE,FAN:CONSTANTVOLUME,KITCHEN_FLR_6 FOURPIPEFANCOIL CONST SPEED FAN,Inlet,1
 Non-Parent Node Connection,KITCHEN_FLR_6 FOURPIPEFANCOIL CONST SPEED FAN FAN OUTLET NODE,FAN:CONSTANTVOLUME,KITCHEN_FLR_6 FOURPIPEFANCOIL CONST SPEED FAN,Outlet,1
 Non-Parent Node Connection,CORRIDOR_FLR_6 FOURPIPEFANCOIL OA MIXER MIXED AIR NODE,FAN:CONSTANTVOLUME,CORRIDOR_FLR_6 FOURPIPEFANCOIL CONST SPEED FAN,Inlet,1
 Non-Parent Node Connection,CORRIDOR_FLR_6 FOURPIPEFANCOIL CONST SPEED FAN FAN OUTLET NODE,FAN:CONSTANTVOLUME,CORRIDOR_FLR_6 FOURPIPEFANCOIL CONST SPEED FAN,Outlet,1
 Non-Parent Node Connection,FAN 0 AIR INLET,FAN:VARIABLEVOLUME,FAN 0,Inlet,1
 Non-Parent Node Connection,DOAS SYSTEM 0 SUPPLY OUTLET NODE,FAN:VARIABLEVOLUME,FAN 0,Outlet,1
 Non-Parent Node Connection,FAN 1 AIR INLET,FAN:VARIABLEVOLUME,FAN 1,Inlet,1
 Non-Parent Node Connection,DOAS SYSTEM 1 SUPPLY OUTLET NODE,FAN:VARIABLEVOLUME,FAN 1,Outlet,1
 Non-Parent Node Connection,FAN 3 AIR INLET,FAN:VARIABLEVOLUME,FAN 3,Inlet,1
 Non-Parent Node Connection,DOAS SYSTEM 3 SUPPLY OUTLET NODE,FAN:VARIABLEVOLUME,FAN 3,Outlet,1
 Non-Parent Node Connection,FAN 6 AIR INLET,FAN:VARIABLEVOLUME,FAN 6,Inlet,1
 Non-Parent Node Connection,DOAS SYSTEM 6 SUPPLY OUTLET NODE,FAN:VARIABLEVOLUME,FAN 6,Outlet,1
 Non-Parent Node Connection,AHU COOLING COIL 0_AIR_OUTLET,CONTROLLER:WATERCOIL,AHU COOLING COIL 0 CONTROLLER,Sensor,1
 Non-Parent Node Connection,AHU COOLING COIL 0_WATER_INLET,CONTROLLER:WATERCOIL,AHU COOLING COIL 0 CONTROLLER,Actuator,1
 Non-Parent Node Connection,FAN 0 AIR INLET,CONTROLLER:WATERCOIL,AHU HEATING COIL 0 CONTROLLER,Sensor,1
 Non-Parent Node Connection,AHU HEATING COIL 0_WATER_INLET,CONTROLLER:WATERCOIL,AHU HEATING COIL 0 CONTROLLER,Actuator,1
 Non-Parent Node Connection,AHU COOLING COIL 1_AIR_OUTLET,CONTROLLER:WATERCOIL,AHU COOLING COIL 1 CONTROLLER,Sensor,1
 Non-Parent Node Connection,AHU COOLING COIL 1_WATER_INLET,CONTROLLER:WATERCOIL,AHU COOLING COIL 1 CONTROLLER,Actuator,1
 Non-Parent Node Connection,FAN 1 AIR INLET,CONTROLLER:WATERCOIL,AHU HEATING COIL 1 CONTROLLER,Sensor,1
 Non-Parent Node Connection,AHU HEATING COIL 1_WATER_INLET,CONTROLLER:WATERCOIL,AHU HEATING COIL 1 CONTROLLER,Actuator,1
 Non-Parent Node Connection,AHU COOLING COIL 3_AIR_OUTLET,CONTROLLER:WATERCOIL,AHU COOLING COIL 3 CONTROLLER,Sensor,1
 Non-Parent Node Connection,AHU COOLING COIL 3_WATER_INLET,CONTROLLER:WATERCOIL,AHU COOLING COIL 3 CONTROLLER,Actuator,1
 Non-Parent Node Connection,FAN 3 AIR INLET,CONTROLLER:WATERCOIL,AHU HEATING COIL 3 CONTROLLER,Sensor,1
 Non-Parent Node Connection,AHU HEATING COIL 3_WATER_INLET,CONTROLLER:WATERCOIL,AHU HEATING COIL 3 CONTROLLER,Actuator,1
 Non-Parent Node Connection,AHU COOLING COIL 6_AIR_OUTLET,CONTROLLER:WATERCOIL,AHU COOLING COIL 6 CONTROLLER,Sensor,1
 Non-Parent Node Connection,AHU COOLING COIL 6_WATER_INLET,CONTROLLER:WATERCOIL,AHU COOLING COIL 6 CONTROLLER,Actuator,1
 Non-Parent Node Connection,FAN 6 AIR INLET,CONTROLLER:WATERCOIL,AHU HEATING COIL 6 CONTROLLER,Sensor,1
 Non-Parent Node Connection,AHU HEATING COIL 6_WATER_INLET,CONTROLLER:WATERCOIL,AHU HEATING COIL 6 CONTROLLER,Actuator,1
 Non-Parent Node Connection,DOAS SYSTEM 0 DEMAND OUTLET NODE,AIRLOOPHVAC:ZONEMIXER,DOAS SYSTEM 0 ZONE MIXER,Outlet,1
 Non-Parent Node Connection,BASEMENT RETURN AIR INLET,AIRLOOPHVAC:ZONEMIXER,DOAS SYSTEM 0 ZONE MIXER,Inlet,1
 Non-Parent Node Connection,DOAS SYSTEM 1 DEMAND OUTLET NODE,AIRLOOPHVAC:ZONEMIXER,DOAS SYSTEM 1 ZONE MIXER,Outlet,1
 Non-Parent Node Connection,RETAIL_1_FLR_1 RETURN AIR INLET,AIRLOOPHVAC:ZONEMIXER,DOAS SYSTEM 1 ZONE MIXER,Inlet,1
 Non-Parent Node Connection,RETAIL_2_FLR_1 RETURN AIR INLET,AIRLOOPHVAC:ZONEMIXER,DOAS SYSTEM 1 ZONE MIXER,Inlet,1
 Non-Parent Node Connection,MECH_FLR_1 RETURN AIR INLET,AIRLOOPHVAC:ZONEMIXER,DOAS SYSTEM 1 ZONE MIXER,Inlet,1
 Non-Parent Node Connection,STORAGE_FLR_1 RETURN AIR INLET,AIRLOOPHVAC:ZONEMIXER,DOAS SYSTEM 1 ZONE MIXER,Inlet,1
 Non-Parent Node Connection,LAUNDRY_FLR_1 RETURN AIR INLET,AIRLOOPHVAC:ZONEMIXER,DOAS SYSTEM 1 ZONE MIXER,Inlet,1
 Non-Parent Node Connection,CAFE_FLR_1 RETURN AIR INLET,AIRLOOPHVAC:ZONEMIXER,DOAS SYSTEM 1 ZONE MIXER,Inlet,1
 Non-Parent Node Connection,LOBBY_FLR_1 RETURN AIR INLET,AIRLOOPHVAC:ZONEMIXER,DOAS SYSTEM 1 ZONE MIXER,Inlet,1
 Non-Parent Node Connection,DOAS SYSTEM 3 DEMAND OUTLET NODE,AIRLOOPHVAC:ZONEMIXER,DOAS SYSTEM 3 ZONE MIXER,Outlet,1
 Non-Parent Node Connection,ROOM_1_FLR_3 RETURN AIR INLET,AIRLOOPHVAC:ZONEMIXER,DOAS SYSTEM 3 ZONE MIXER,Inlet,1
 Non-Parent Node Connection,ROOM_2_FLR_3 RETURN AIR INLET,AIRLOOPHVAC:ZONEMIXER,DOAS SYSTEM 3 ZONE MIXER,Inlet,1
 Non-Parent Node Connection,ROOM_3_MULT19_FLR_3 RETURN AIR INLET,AIRLOOPHVAC:ZONEMIXER,DOAS SYSTEM 3 ZONE MIXER,Inlet,1
 Non-Parent Node Connection,ROOM_4_MULT19_FLR_3 RETURN AIR INLET,AIRLOOPHVAC:ZONEMIXER,DOAS SYSTEM 3 ZONE MIXER,Inlet,1
 Non-Parent Node Connection,ROOM_5_FLR_3 RETURN AIR INLET,AIRLOOPHVAC:ZONEMIXER,DOAS SYSTEM 3 ZONE MIXER,Inlet,1
 Non-Parent Node Connection,ROOM_6_FLR_3 RETURN AIR INLET,AIRLOOPHVAC:ZONEMIXER,DOAS SYSTEM 3 ZONE MIXER,Inlet,1
 Non-Parent Node Connection,CORRIDOR_FLR_3 RETURN AIR INLET,AIRLOOPHVAC:ZONEMIXER,DOAS SYSTEM 3 ZONE MIXER,Inlet,1
 Non-Parent Node Connection,DOAS SYSTEM 6 DEMAND OUTLET NODE,AIRLOOPHVAC:ZONEMIXER,DOAS SYSTEM 6 ZONE MIXER,Outlet,1
 Non-Parent Node Connection,ROOM_1_FLR_6 RETURN AIR INLET,AIRLOOPHVAC:ZONEMIXER,DOAS SYSTEM 6 ZONE MIXER,Inlet,1
 Non-Parent Node Connection,ROOM_2_FLR_6 RETURN AIR INLET,AIRLOOPHVAC:ZONEMIXER,DOAS SYSTEM 6 ZONE MIXER,Inlet,1
 Non-Parent Node Connection,ROOM_3_MULT9_FLR_6 RETURN AIR INLET,AIRLOOPHVAC:ZONEMIXER,DOAS SYSTEM 6 ZONE MIXER,Inlet,1
 Non-Parent Node Connection,BANQUET_FLR_6 RETURN AIR INLET,AIRLOOPHVAC:ZONEMIXER,DOAS SYSTEM 6 ZONE MIXER,Inlet,1
 Non-Parent Node Connection,DINING_FLR_6 RETURN AIR INLET,AIRLOOPHVAC:ZONEMIXER,DOAS SYSTEM 6 ZONE MIXER,Inlet,1
 Non-Parent Node Connection,KITCHEN_FLR_6 RETURN AIR INLET,AIRLOOPHVAC:ZONEMIXER,DOAS SYSTEM 6 ZONE MIXER,Inlet,1
 Non-Parent Node Connection,CORRIDOR_FLR_6 RETURN AIR INLET,AIRLOOPHVAC:ZONEMIXER,DOAS SYSTEM 6 ZONE MIXER,Inlet,1
 Non-Parent Node Connection,DOAS SYSTEM 0 OUTDOOR AIR SYSTEM CONTROLLER MIXED_AIR,CONTROLLER:OUTDOORAIR,DOAS SYSTEM 0 OUTDOOR AIR SYSTEM CONTROLLER,Sensor,1
 Non-Parent Node Connection,DOAS SYSTEM 0 OUTDOOR AIR SYSTEM CONTROLLER OUTDOOR_AIR_INLET,CONTROLLER:OUTDOORAIR,DOAS SYSTEM 0 OUTDOOR AIR SYSTEM CONTROLLER,Actuator,1
 Non-Parent Node Connection,DOAS SYSTEM 0 OUTDOOR AIR SYSTEM CONTROLLER RELIEF_AIR_OUTLET,CONTROLLER:OUTDOORAIR,DOAS SYSTEM 0 OUTDOOR AIR SYSTEM CONTROLLER,Actuator,1
 Non-Parent Node Connection,DOAS SYSTEM 0 SUPPLY INLET NODE,CONTROLLER:OUTDOORAIR,DOAS SYSTEM 0 OUTDOOR AIR SYSTEM CONTROLLER,Sensor,1
 Non-Parent Node Connection,DOAS SYSTEM 1 OUTDOOR AIR SYSTEM CONTROLLER MIXED_AIR,CONTROLLER:OUTDOORAIR,DOAS SYSTEM 1 OUTDOOR AIR SYSTEM CONTROLLER,Sensor,1
 Non-Parent Node Connection,DOAS SYSTEM 1 OUTDOOR AIR SYSTEM CONTROLLER OUTDOOR_AIR_INLET,CONTROLLER:OUTDOORAIR,DOAS SYSTEM 1 OUTDOOR AIR SYSTEM CONTROLLER,Actuator,1
 Non-Parent Node Connection,DOAS SYSTEM 1 OUTDOOR AIR SYSTEM CONTROLLER RELIEF_AIR_OUTLET,CONTROLLER:OUTDOORAIR,DOAS SYSTEM 1 OUTDOOR AIR SYSTEM CONTROLLER,Actuator,1
 Non-Parent Node Connection,DOAS SYSTEM 1 SUPPLY INLET NODE,CONTROLLER:OUTDOORAIR,DOAS SYSTEM 1 OUTDOOR AIR SYSTEM CONTROLLER,Sensor,1
 Non-Parent Node Connection,DOAS SYSTEM 3 OUTDOOR AIR SYSTEM CONTROLLER MIXED_AIR,CONTROLLER:OUTDOORAIR,DOAS SYSTEM 3 OUTDOOR AIR SYSTEM CONTROLLER,Sensor,1
 Non-Parent Node Connection,DOAS SYSTEM 3 OUTDOOR AIR SYSTEM CONTROLLER OUTDOOR_AIR_INLET,CONTROLLER:OUTDOORAIR,DOAS SYSTEM 3 OUTDOOR AIR SYSTEM CONTROLLER,Actuator,1
 Non-Parent Node Connection,DOAS SYSTEM 3 OUTDOOR AIR SYSTEM CONTROLLER RELIEF_AIR_OUTLET,CONTROLLER:OUTDOORAIR,DOAS SYSTEM 3 OUTDOOR AIR SYSTEM CONTROLLER,Actuator,1
 Non-Parent Node Connection,DOAS SYSTEM 3 SUPPLY INLET NODE,CONTROLLER:OUTDOORAIR,DOAS SYSTEM 3 OUTDOOR AIR SYSTEM CONTROLLER,Sensor,1
 Non-Parent Node Connection,DOAS SYSTEM 6 OUTDOOR AIR SYSTEM CONTROLLER MIXED_AIR,CONTROLLER:OUTDOORAIR,DOAS SYSTEM 6 OUTDOOR AIR SYSTEM CONTROLLER,Sensor,1
 Non-Parent Node Connection,DOAS SYSTEM 6 OUTDOOR AIR SYSTEM CONTROLLER OUTDOOR_AIR_INLET,CONTROLLER:OUTDOORAIR,DOAS SYSTEM 6 OUTDOOR AIR SYSTEM CONTROLLER,Actuator,1
 Non-Parent Node Connection,DOAS SYSTEM 6 OUTDOOR AIR SYSTEM CONTROLLER RELIEF_AIR_OUTLET,CONTROLLER:OUTDOORAIR,DOAS SYSTEM 6 OUTDOOR AIR SYSTEM CONTROLLER,Actuator,1
 Non-Parent Node Connection,DOAS SYSTEM 6 SUPPLY INLET NODE,CONTROLLER:OUTDOORAIR,DOAS SYSTEM 6 OUTDOOR AIR SYSTEM CONTROLLER,Sensor,1
 Non-Parent Node Connection,CHW PUMP 1_WATER_INLET,PUMP:VARIABLESPEED,CHW PUMP 1,Inlet,1
 Non-Parent Node Connection,CHILLER 1 CHILLED_WATER_INLET,PUMP:VARIABLESPEED,CHW PUMP 1,Outlet,1
 Non-Parent Node Connection,CHW PUMP 2_WATER_INLET,PUMP:VARIABLESPEED,CHW PUMP 2,Inlet,1
 Non-Parent Node Connection,CHILLER 2 CHILLED_WATER_INLET,PUMP:VARIABLESPEED,CHW PUMP 2,Outlet,1
 Non-Parent Node Connection,YMCA CONDENSER WATER LOOP SUPPLY INLET,PUMP:VARIABLESPEED,CW PUMP,Inlet,1
 Non-Parent Node Connection,CW PUMP_WATER_OUTLET,PUMP:VARIABLESPEED,CW PUMP,Outlet,1
 Non-Parent Node Connection,TEST HOT WATER LOOP SUPPLY INLET,PUMP:VARIABLESPEED,HW PUMP,Inlet,1
 Non-Parent Node Connection,HW PUMP_WATER_OUTLET,PUMP:VARIABLESPEED,HW PUMP,Outlet,1
