! Program Version,EnergyPlus, Version 24.2.0-94a887817b, YMD=2024.10.29 10:36,
! Output:Meter Objects (applicable to this run)
Output:Meter,Electricity:Facility,hourly; !- [J]
Output:Meter:Cumulative,Electricity:Facility,hourly; !- [J]
Output:Meter,Electricity:Building,hourly; !- [J]
Output:Meter:Cumulative,Electricity:Building,hourly; !- [J]
Output:Meter,Electricity:Zone:A100 RECEPTION_\{13822\},hourly; !- [J]
Output:Meter:Cumulative,Electricity:Zone:A100 RECEPTION_\{13822\},hourly; !- [J]
Output:Meter,Electricity:SpaceType:GENERAL,hourly; !- [J]
Output:Meter:Cumulative,Electricity:SpaceType:GENERAL,hourly; !- [J]
Output:Meter,InteriorLights:Electricity,hourly; !- [J]
Output:Meter:Cumulative,InteriorLights:Electricity,hourly; !- [J]
Output:Meter,InteriorLights:Electricity:Zone:A100 RECEPTION_\{13822\},hourly; !- [J]
Output:Meter:Cumulative,InteriorLights:Electricity:Zone:A100 RECEPTION_\{13822\},hourly; !- [J]
Output:Meter,InteriorLights:Electricity:SpaceType:GENERAL,hourly; !- [J]
Output:Meter:Cumulative,InteriorLights:Electricity:SpaceType:GENERAL,hourly; !- [J]
Output:Meter,General:InteriorLights:Electricity,hourly; !- [J]
Output:Meter:Cumulative,General:InteriorLights:Electricity,hourly; !- [J]
Output:Meter,General:InteriorLights:Electricity:Zone:A100 RECEPTION_\{13822\},hourly; !- [J]
Output:Meter:Cumulative,General:InteriorLights:Electricity:Zone:A100 RECEPTION_\{13822\},hourly; !- [J]
Output:Meter,General:InteriorLights:Electricity:SpaceType:GENERAL,hourly; !- [J]
Output:Meter:Cumulative,General:InteriorLights:Electricity:SpaceType:GENERAL,hourly; !- [J]
Output:Meter,Electricity:Zone:A220 \- ATRIUM_\{13815\},hourly; !- [J]
Output:Meter:Cumulative,Electricity:Zone:A220 \- ATRIUM_\{13815\},hourly; !- [J]
Output:Meter,InteriorLights:Electricity:Zone:A220 \- ATRIUM_\{13815\},hourly; !- [J]
Output:Meter:Cumulative,InteriorLights:Electricity:Zone:A220 \- ATRIUM_\{13815\},hourly; !- [J]
Output:Meter,General:InteriorLights:Electricity:Zone:A220 \- ATRIUM_\{13815\},hourly; !- [J]
Output:Meter:Cumulative,General:InteriorLights:Electricity:Zone:A220 \- ATRIUM_\{13815\},hourly; !- [J]
Output:Meter,Electricity:Zone:A320 \- ATRIUM_\{13808\},hourly; !- [J]
Output:Meter:Cumulative,Electricity:Zone:A320 \- ATRIUM_\{13808\},hourly; !- [J]
Output:Meter,InteriorLights:Electricity:Zone:A320 \- ATRIUM_\{13808\},hourly; !- [J]
Output:Meter:Cumulative,InteriorLights:Electricity:Zone:A320 \- ATRIUM_\{13808\},hourly; !- [J]
Output:Meter,General:InteriorLights:Electricity:Zone:A320 \- ATRIUM_\{13808\},hourly; !- [J]
Output:Meter:Cumulative,General:InteriorLights:Electricity:Zone:A320 \- ATRIUM_\{13808\},hourly; !- [J]
Output:Meter,Electricity:Zone:A420 \- ATRIUM_\{13801\},hourly; !- [J]
Output:Meter:Cumulative,Electricity:Zone:A420 \- ATRIUM_\{13801\},hourly; !- [J]
Output:Meter,InteriorLights:Electricity:Zone:A420 \- ATRIUM_\{13801\},hourly; !- [J]
Output:Meter:Cumulative,InteriorLights:Electricity:Zone:A420 \- ATRIUM_\{13801\},hourly; !- [J]
Output:Meter,General:InteriorLights:Electricity:Zone:A420 \- ATRIUM_\{13801\},hourly; !- [J]
Output:Meter:Cumulative,General:InteriorLights:Electricity:Zone:A420 \- ATRIUM_\{13801\},hourly; !- [J]
Output:Meter,Electricity:Zone:A500A \- STORAGE_\{13794\},hourly; !- [J]
Output:Meter:Cumulative,Electricity:Zone:A500A \- STORAGE_\{13794\},hourly; !- [J]
Output:Meter,InteriorLights:Electricity:Zone:A500A \- STORAGE_\{13794\},hourly; !- [J]
Output:Meter:Cumulative,InteriorLights:Electricity:Zone:A500A \- STORAGE_\{13794\},hourly; !- [J]
Output:Meter,General:InteriorLights:Electricity:Zone:A500A \- STORAGE_\{13794\},hourly; !- [J]
Output:Meter:Cumulative,General:InteriorLights:Electricity:Zone:A500A \- STORAGE_\{13794\},hourly; !- [J]
Output:Meter,Electricity:Zone:A501 \- BRIDGE_\{13787\},hourly; !- [J]
Output:Meter:Cumulative,Electricity:Zone:A501 \- BRIDGE_\{13787\},hourly; !- [J]
Output:Meter,InteriorLights:Electricity:Zone:A501 \- BRIDGE_\{13787\},hourly; !- [J]
Output:Meter:Cumulative,InteriorLights:Electricity:Zone:A501 \- BRIDGE_\{13787\},hourly; !- [J]
Output:Meter,General:InteriorLights:Electricity:Zone:A501 \- BRIDGE_\{13787\},hourly; !- [J]
Output:Meter:Cumulative,General:InteriorLights:Electricity:Zone:A501 \- BRIDGE_\{13787\},hourly; !- [J]
Output:Meter,Electricity:Zone:LEVEL 1\.2 SPACE_\{13780\},hourly; !- [J]
Output:Meter:Cumulative,Electricity:Zone:LEVEL 1\.2 SPACE_\{13780\},hourly; !- [J]
Output:Meter,InteriorLights:Electricity:Zone:LEVEL 1\.2 SPACE_\{13780\},hourly; !- [J]
Output:Meter:Cumulative,InteriorLights:Electricity:Zone:LEVEL 1\.2 SPACE_\{13780\},hourly; !- [J]
Output:Meter,General:InteriorLights:Electricity:Zone:LEVEL 1\.2 SPACE_\{13780\},hourly; !- [J]
Output:Meter:Cumulative,General:InteriorLights:Electricity:Zone:LEVEL 1\.2 SPACE_\{13780\},hourly; !- [J]
Output:Meter,Electricity:Zone:N101 \- PRE\-FUNCTION_\{13773\},hourly; !- [J]
Output:Meter:Cumulative,Electricity:Zone:N101 \- PRE\-FUNCTION_\{13773\},hourly; !- [J]
Output:Meter,InteriorLights:Electricity:Zone:N101 \- PRE\-FUNCTION_\{13773\},hourly; !- [J]
Output:Meter:Cumulative,InteriorLights:Electricity:Zone:N101 \- PRE\-FUNCTION_\{13773\},hourly; !- [J]
Output:Meter,General:InteriorLights:Electricity:Zone:N101 \- PRE\-FUNCTION_\{13773\},hourly; !- [J]
Output:Meter:Cumulative,General:InteriorLights:Electricity:Zone:N101 \- PRE\-FUNCTION_\{13773\},hourly; !- [J]
Output:Meter,Electricity:Zone:N102 \- CONFERENCE_\{13766\},hourly; !- [J]
Output:Meter:Cumulative,Electricity:Zone:N102 \- CONFERENCE_\{13766\},hourly; !- [J]
Output:Meter,InteriorLights:Electricity:Zone:N102 \- CONFERENCE_\{13766\},hourly; !- [J]
Output:Meter:Cumulative,InteriorLights:Electricity:Zone:N102 \- CONFERENCE_\{13766\},hourly; !- [J]
Output:Meter,General:InteriorLights:Electricity:Zone:N102 \- CONFERENCE_\{13766\},hourly; !- [J]
Output:Meter:Cumulative,General:InteriorLights:Electricity:Zone:N102 \- CONFERENCE_\{13766\},hourly; !- [J]
Output:Meter,Electricity:Zone:N102A \- STORAGE_\{13759\},hourly; !- [J]
Output:Meter:Cumulative,Electricity:Zone:N102A \- STORAGE_\{13759\},hourly; !- [J]
Output:Meter,InteriorLights:Electricity:Zone:N102A \- STORAGE_\{13759\},hourly; !- [J]
Output:Meter:Cumulative,InteriorLights:Electricity:Zone:N102A \- STORAGE_\{13759\},hourly; !- [J]
Output:Meter,General:InteriorLights:Electricity:Zone:N102A \- STORAGE_\{13759\},hourly; !- [J]
Output:Meter:Cumulative,General:InteriorLights:Electricity:Zone:N102A \- STORAGE_\{13759\},hourly; !- [J]
Output:Meter,Electricity:Zone:N103 \- JANITOR_\{13752\},hourly; !- [J]
Output:Meter:Cumulative,Electricity:Zone:N103 \- JANITOR_\{13752\},hourly; !- [J]
Output:Meter,InteriorLights:Electricity:Zone:N103 \- JANITOR_\{13752\},hourly; !- [J]
Output:Meter:Cumulative,InteriorLights:Electricity:Zone:N103 \- JANITOR_\{13752\},hourly; !- [J]
Output:Meter,General:InteriorLights:Electricity:Zone:N103 \- JANITOR_\{13752\},hourly; !- [J]
Output:Meter:Cumulative,General:InteriorLights:Electricity:Zone:N103 \- JANITOR_\{13752\},hourly; !- [J]
Output:Meter,Electricity:Zone:N104 \- BUSINESS CENTER_\{13745\},hourly; !- [J]
Output:Meter:Cumulative,Electricity:Zone:N104 \- BUSINESS CENTER_\{13745\},hourly; !- [J]
Output:Meter,InteriorLights:Electricity:Zone:N104 \- BUSINESS CENTER_\{13745\},hourly; !- [J]
Output:Meter:Cumulative,InteriorLights:Electricity:Zone:N104 \- BUSINESS CENTER_\{13745\},hourly; !- [J]
Output:Meter,General:InteriorLights:Electricity:Zone:N104 \- BUSINESS CENTER_\{13745\},hourly; !- [J]
Output:Meter:Cumulative,General:InteriorLights:Electricity:Zone:N104 \- BUSINESS CENTER_\{13745\},hourly; !- [J]
Output:Meter,Electricity:Zone:N104A \- GREENROOM_\{13738\},hourly; !- [J]
Output:Meter:Cumulative,Electricity:Zone:N104A \- GREENROOM_\{13738\},hourly; !- [J]
Output:Meter,InteriorLights:Electricity:Zone:N104A \- GREENROOM_\{13738\},hourly; !- [J]
Output:Meter:Cumulative,InteriorLights:Electricity:Zone:N104A \- GREENROOM_\{13738\},hourly; !- [J]
Output:Meter,General:InteriorLights:Electricity:Zone:N104A \- GREENROOM_\{13738\},hourly; !- [J]
Output:Meter:Cumulative,General:InteriorLights:Electricity:Zone:N104A \- GREENROOM_\{13738\},hourly; !- [J]
Output:Meter,Electricity:Zone:N104B \- LUGGAGE STORAGE_\{13731\},hourly; !- [J]
Output:Meter:Cumulative,Electricity:Zone:N104B \- LUGGAGE STORAGE_\{13731\},hourly; !- [J]
Output:Meter,InteriorLights:Electricity:Zone:N104B \- LUGGAGE STORAGE_\{13731\},hourly; !- [J]
Output:Meter:Cumulative,InteriorLights:Electricity:Zone:N104B \- LUGGAGE STORAGE_\{13731\},hourly; !- [J]
Output:Meter,General:InteriorLights:Electricity:Zone:N104B \- LUGGAGE STORAGE_\{13731\},hourly; !- [J]
Output:Meter:Cumulative,General:InteriorLights:Electricity:Zone:N104B \- LUGGAGE STORAGE_\{13731\},hourly; !- [J]
Output:Meter,Electricity:Zone:N104D \- STORAGE_\{13724\},hourly; !- [J]
Output:Meter:Cumulative,Electricity:Zone:N104D \- STORAGE_\{13724\},hourly; !- [J]
Output:Meter,InteriorLights:Electricity:Zone:N104D \- STORAGE_\{13724\},hourly; !- [J]
Output:Meter:Cumulative,InteriorLights:Electricity:Zone:N104D \- STORAGE_\{13724\},hourly; !- [J]
Output:Meter,General:InteriorLights:Electricity:Zone:N104D \- STORAGE_\{13724\},hourly; !- [J]
Output:Meter:Cumulative,General:InteriorLights:Electricity:Zone:N104D \- STORAGE_\{13724\},hourly; !- [J]
Output:Meter,Electricity:Zone:N105/106 \- RESTROOM_\{13716\},hourly; !- [J]
Output:Meter:Cumulative,Electricity:Zone:N105/106 \- RESTROOM_\{13716\},hourly; !- [J]
Output:Meter,InteriorLights:Electricity:Zone:N105/106 \- RESTROOM_\{13716\},hourly; !- [J]
Output:Meter:Cumulative,InteriorLights:Electricity:Zone:N105/106 \- RESTROOM_\{13716\},hourly; !- [J]
Output:Meter,General:InteriorLights:Electricity:Zone:N105/106 \- RESTROOM_\{13716\},hourly; !- [J]
Output:Meter:Cumulative,General:InteriorLights:Electricity:Zone:N105/106 \- RESTROOM_\{13716\},hourly; !- [J]
Output:Meter,Electricity:Zone:N107 \- AV/IDF_\{13709\},hourly; !- [J]
Output:Meter:Cumulative,Electricity:Zone:N107 \- AV/IDF_\{13709\},hourly; !- [J]
Output:Meter,InteriorLights:Electricity:Zone:N107 \- AV/IDF_\{13709\},hourly; !- [J]
Output:Meter:Cumulative,InteriorLights:Electricity:Zone:N107 \- AV/IDF_\{13709\},hourly; !- [J]
Output:Meter,General:InteriorLights:Electricity:Zone:N107 \- AV/IDF_\{13709\},hourly; !- [J]
Output:Meter:Cumulative,General:InteriorLights:Electricity:Zone:N107 \- AV/IDF_\{13709\},hourly; !- [J]
Output:Meter,Electricity:Zone:N108/109 \- RESTROOM_\{13701\},hourly; !- [J]
Output:Meter:Cumulative,Electricity:Zone:N108/109 \- RESTROOM_\{13701\},hourly; !- [J]
Output:Meter,InteriorLights:Electricity:Zone:N108/109 \- RESTROOM_\{13701\},hourly; !- [J]
Output:Meter:Cumulative,InteriorLights:Electricity:Zone:N108/109 \- RESTROOM_\{13701\},hourly; !- [J]
Output:Meter,General:InteriorLights:Electricity:Zone:N108/109 \- RESTROOM_\{13701\},hourly; !- [J]
Output:Meter:Cumulative,General:InteriorLights:Electricity:Zone:N108/109 \- RESTROOM_\{13701\},hourly; !- [J]
Output:Meter,Electricity:Zone:N110 \- CORRIDOR_\{13694\},hourly; !- [J]
Output:Meter:Cumulative,Electricity:Zone:N110 \- CORRIDOR_\{13694\},hourly; !- [J]
Output:Meter,InteriorLights:Electricity:Zone:N110 \- CORRIDOR_\{13694\},hourly; !- [J]
Output:Meter:Cumulative,InteriorLights:Electricity:Zone:N110 \- CORRIDOR_\{13694\},hourly; !- [J]
Output:Meter,General:InteriorLights:Electricity:Zone:N110 \- CORRIDOR_\{13694\},hourly; !- [J]
Output:Meter:Cumulative,General:InteriorLights:Electricity:Zone:N110 \- CORRIDOR_\{13694\},hourly; !- [J]
Output:Meter,Electricity:Zone:N111 \- ELEC_\{13687\},hourly; !- [J]
Output:Meter:Cumulative,Electricity:Zone:N111 \- ELEC_\{13687\},hourly; !- [J]
Output:Meter,InteriorLights:Electricity:Zone:N111 \- ELEC_\{13687\},hourly; !- [J]
Output:Meter:Cumulative,InteriorLights:Electricity:Zone:N111 \- ELEC_\{13687\},hourly; !- [J]
Output:Meter,General:InteriorLights:Electricity:Zone:N111 \- ELEC_\{13687\},hourly; !- [J]
Output:Meter:Cumulative,General:InteriorLights:Electricity:Zone:N111 \- ELEC_\{13687\},hourly; !- [J]
Output:Meter,Electricity:Zone:N112 \- WATER HEATER_\{13680\},hourly; !- [J]
Output:Meter:Cumulative,Electricity:Zone:N112 \- WATER HEATER_\{13680\},hourly; !- [J]
Output:Meter,InteriorLights:Electricity:Zone:N112 \- WATER HEATER_\{13680\},hourly; !- [J]
Output:Meter:Cumulative,InteriorLights:Electricity:Zone:N112 \- WATER HEATER_\{13680\},hourly; !- [J]
Output:Meter,General:InteriorLights:Electricity:Zone:N112 \- WATER HEATER_\{13680\},hourly; !- [J]
Output:Meter:Cumulative,General:InteriorLights:Electricity:Zone:N112 \- WATER HEATER_\{13680\},hourly; !- [J]
Output:Meter,Electricity:Zone:N113 \- MECHANICAL_\{13673\},hourly; !- [J]
Output:Meter:Cumulative,Electricity:Zone:N113 \- MECHANICAL_\{13673\},hourly; !- [J]
Output:Meter,InteriorLights:Electricity:Zone:N113 \- MECHANICAL_\{13673\},hourly; !- [J]
Output:Meter:Cumulative,InteriorLights:Electricity:Zone:N113 \- MECHANICAL_\{13673\},hourly; !- [J]
Output:Meter,General:InteriorLights:Electricity:Zone:N113 \- MECHANICAL_\{13673\},hourly; !- [J]
Output:Meter:Cumulative,General:InteriorLights:Electricity:Zone:N113 \- MECHANICAL_\{13673\},hourly; !- [J]
Output:Meter,Electricity:Zone:N114 \- STORAGE_\{13666\},hourly; !- [J]
Output:Meter:Cumulative,Electricity:Zone:N114 \- STORAGE_\{13666\},hourly; !- [J]
Output:Meter,InteriorLights:Electricity:Zone:N114 \- STORAGE_\{13666\},hourly; !- [J]
Output:Meter:Cumulative,InteriorLights:Electricity:Zone:N114 \- STORAGE_\{13666\},hourly; !- [J]
Output:Meter,General:InteriorLights:Electricity:Zone:N114 \- STORAGE_\{13666\},hourly; !- [J]
Output:Meter:Cumulative,General:InteriorLights:Electricity:Zone:N114 \- STORAGE_\{13666\},hourly; !- [J]
Output:Meter,Electricity:Zone:N115 \- CORRIDOR_\{13659\},hourly; !- [J]
Output:Meter:Cumulative,Electricity:Zone:N115 \- CORRIDOR_\{13659\},hourly; !- [J]
Output:Meter,InteriorLights:Electricity:Zone:N115 \- CORRIDOR_\{13659\},hourly; !- [J]
Output:Meter:Cumulative,InteriorLights:Electricity:Zone:N115 \- CORRIDOR_\{13659\},hourly; !- [J]
Output:Meter,General:InteriorLights:Electricity:Zone:N115 \- CORRIDOR_\{13659\},hourly; !- [J]
Output:Meter:Cumulative,General:InteriorLights:Electricity:Zone:N115 \- CORRIDOR_\{13659\},hourly; !- [J]
Output:Meter,Electricity:Zone:N116 \- STORAGE_\{13652\},hourly; !- [J]
Output:Meter:Cumulative,Electricity:Zone:N116 \- STORAGE_\{13652\},hourly; !- [J]
Output:Meter,InteriorLights:Electricity:Zone:N116 \- STORAGE_\{13652\},hourly; !- [J]
Output:Meter:Cumulative,InteriorLights:Electricity:Zone:N116 \- STORAGE_\{13652\},hourly; !- [J]
Output:Meter,General:InteriorLights:Electricity:Zone:N116 \- STORAGE_\{13652\},hourly; !- [J]
Output:Meter:Cumulative,General:InteriorLights:Electricity:Zone:N116 \- STORAGE_\{13652\},hourly; !- [J]
Output:Meter,Electricity:Zone:N189/198_ELEV_STAIR_5_\{13645\},hourly; !- [J]
Output:Meter:Cumulative,Electricity:Zone:N189/198_ELEV_STAIR_5_\{13645\},hourly; !- [J]
Output:Meter,InteriorLights:Electricity:Zone:N189/198_ELEV_STAIR_5_\{13645\},hourly; !- [J]
Output:Meter:Cumulative,InteriorLights:Electricity:Zone:N189/198_ELEV_STAIR_5_\{13645\},hourly; !- [J]
Output:Meter,General:InteriorLights:Electricity:Zone:N189/198_ELEV_STAIR_5_\{13645\},hourly; !- [J]
Output:Meter:Cumulative,General:InteriorLights:Electricity:Zone:N189/198_ELEV_STAIR_5_\{13645\},hourly; !- [J]
Output:Meter,Electricity:Zone:N199 \- STAIR 6_\{13638\},hourly; !- [J]
Output:Meter:Cumulative,Electricity:Zone:N199 \- STAIR 6_\{13638\},hourly; !- [J]
Output:Meter,InteriorLights:Electricity:Zone:N199 \- STAIR 6_\{13638\},hourly; !- [J]
Output:Meter:Cumulative,InteriorLights:Electricity:Zone:N199 \- STAIR 6_\{13638\},hourly; !- [J]
Output:Meter,General:InteriorLights:Electricity:Zone:N199 \- STAIR 6_\{13638\},hourly; !- [J]
Output:Meter:Cumulative,General:InteriorLights:Electricity:Zone:N199 \- STAIR 6_\{13638\},hourly; !- [J]
Output:Meter,Electricity:Zone:N201 \- CORRIDOR_\{13631\},hourly; !- [J]
Output:Meter:Cumulative,Electricity:Zone:N201 \- CORRIDOR_\{13631\},hourly; !- [J]
Output:Meter,InteriorLights:Electricity:Zone:N201 \- CORRIDOR_\{13631\},hourly; !- [J]
Output:Meter:Cumulative,InteriorLights:Electricity:Zone:N201 \- CORRIDOR_\{13631\},hourly; !- [J]
Output:Meter,General:InteriorLights:Electricity:Zone:N201 \- CORRIDOR_\{13631\},hourly; !- [J]
Output:Meter:Cumulative,General:InteriorLights:Electricity:Zone:N201 \- CORRIDOR_\{13631\},hourly; !- [J]
Output:Meter,Electricity:Zone:N203 \- WOMEN\'S RESTROOM_\{13580\},hourly; !- [J]
Output:Meter:Cumulative,Electricity:Zone:N203 \- WOMEN\'S RESTROOM_\{13580\},hourly; !- [J]
Output:Meter,InteriorLights:Electricity:Zone:N203 \- WOMEN\'S RESTROOM_\{13580\},hourly; !- [J]
Output:Meter:Cumulative,InteriorLights:Electricity:Zone:N203 \- WOMEN\'S RESTROOM_\{13580\},hourly; !- [J]
Output:Meter,General:InteriorLights:Electricity:Zone:N203 \- WOMEN\'S RESTROOM_\{13580\},hourly; !- [J]
Output:Meter:Cumulative,General:InteriorLights:Electricity:Zone:N203 \- WOMEN\'S RESTROOM_\{13580\},hourly; !- [J]
Output:Meter,Electricity:Zone:N204 \- MEN\'S RESTROOM_\{13616\},hourly; !- [J]
Output:Meter:Cumulative,Electricity:Zone:N204 \- MEN\'S RESTROOM_\{13616\},hourly; !- [J]
Output:Meter,InteriorLights:Electricity:Zone:N204 \- MEN\'S RESTROOM_\{13616\},hourly; !- [J]
Output:Meter:Cumulative,InteriorLights:Electricity:Zone:N204 \- MEN\'S RESTROOM_\{13616\},hourly; !- [J]
Output:Meter,General:InteriorLights:Electricity:Zone:N204 \- MEN\'S RESTROOM_\{13616\},hourly; !- [J]
Output:Meter:Cumulative,General:InteriorLights:Electricity:Zone:N204 \- MEN\'S RESTROOM_\{13616\},hourly; !- [J]
Output:Meter,Electricity:Zone:N205 \- ELECTRIC ROOM_\{13609\},hourly; !- [J]
Output:Meter:Cumulative,Electricity:Zone:N205 \- ELECTRIC ROOM_\{13609\},hourly; !- [J]
Output:Meter,InteriorLights:Electricity:Zone:N205 \- ELECTRIC ROOM_\{13609\},hourly; !- [J]
Output:Meter:Cumulative,InteriorLights:Electricity:Zone:N205 \- ELECTRIC ROOM_\{13609\},hourly; !- [J]
Output:Meter,General:InteriorLights:Electricity:Zone:N205 \- ELECTRIC ROOM_\{13609\},hourly; !- [J]
Output:Meter:Cumulative,General:InteriorLights:Electricity:Zone:N205 \- ELECTRIC ROOM_\{13609\},hourly; !- [J]
Output:Meter,Electricity:Zone:N206 \- JANITOR_\{13602\},hourly; !- [J]
Output:Meter:Cumulative,Electricity:Zone:N206 \- JANITOR_\{13602\},hourly; !- [J]
Output:Meter,InteriorLights:Electricity:Zone:N206 \- JANITOR_\{13602\},hourly; !- [J]
Output:Meter:Cumulative,InteriorLights:Electricity:Zone:N206 \- JANITOR_\{13602\},hourly; !- [J]
Output:Meter,General:InteriorLights:Electricity:Zone:N206 \- JANITOR_\{13602\},hourly; !- [J]
Output:Meter:Cumulative,General:InteriorLights:Electricity:Zone:N206 \- JANITOR_\{13602\},hourly; !- [J]
Output:Meter,Electricity:Zone:N209 \- A/V_\{13595\},hourly; !- [J]
Output:Meter:Cumulative,Electricity:Zone:N209 \- A/V_\{13595\},hourly; !- [J]
Output:Meter,InteriorLights:Electricity:Zone:N209 \- A/V_\{13595\},hourly; !- [J]
Output:Meter:Cumulative,InteriorLights:Electricity:Zone:N209 \- A/V_\{13595\},hourly; !- [J]
Output:Meter,General:InteriorLights:Electricity:Zone:N209 \- A/V_\{13595\},hourly; !- [J]
Output:Meter:Cumulative,General:InteriorLights:Electricity:Zone:N209 \- A/V_\{13595\},hourly; !- [J]
Output:Meter,Electricity:Zone:N210 \- MDF_\{13588\},hourly; !- [J]
Output:Meter:Cumulative,Electricity:Zone:N210 \- MDF_\{13588\},hourly; !- [J]
Output:Meter,InteriorLights:Electricity:Zone:N210 \- MDF_\{13588\},hourly; !- [J]
Output:Meter:Cumulative,InteriorLights:Electricity:Zone:N210 \- MDF_\{13588\},hourly; !- [J]
Output:Meter,General:InteriorLights:Electricity:Zone:N210 \- MDF_\{13588\},hourly; !- [J]
Output:Meter:Cumulative,General:InteriorLights:Electricity:Zone:N210 \- MDF_\{13588\},hourly; !- [J]
Output:Meter,Electricity:Zone:N211 \- MECHANICAL ROOM_\{13573\},hourly; !- [J]
Output:Meter:Cumulative,Electricity:Zone:N211 \- MECHANICAL ROOM_\{13573\},hourly; !- [J]
Output:Meter,InteriorLights:Electricity:Zone:N211 \- MECHANICAL ROOM_\{13573\},hourly; !- [J]
Output:Meter:Cumulative,InteriorLights:Electricity:Zone:N211 \- MECHANICAL ROOM_\{13573\},hourly; !- [J]
Output:Meter,General:InteriorLights:Electricity:Zone:N211 \- MECHANICAL ROOM_\{13573\},hourly; !- [J]
Output:Meter:Cumulative,General:InteriorLights:Electricity:Zone:N211 \- MECHANICAL ROOM_\{13573\},hourly; !- [J]
Output:Meter,Electricity:Zone:N213 \- STAFF OFFICE_\{13566\},hourly; !- [J]
Output:Meter:Cumulative,Electricity:Zone:N213 \- STAFF OFFICE_\{13566\},hourly; !- [J]
Output:Meter,InteriorLights:Electricity:Zone:N213 \- STAFF OFFICE_\{13566\},hourly; !- [J]
Output:Meter:Cumulative,InteriorLights:Electricity:Zone:N213 \- STAFF OFFICE_\{13566\},hourly; !- [J]
Output:Meter,General:InteriorLights:Electricity:Zone:N213 \- STAFF OFFICE_\{13566\},hourly; !- [J]
Output:Meter:Cumulative,General:InteriorLights:Electricity:Zone:N213 \- STAFF OFFICE_\{13566\},hourly; !- [J]
Output:Meter,Electricity:Zone:N214 \- CONFERENCE_\{13559\},hourly; !- [J]
Output:Meter:Cumulative,Electricity:Zone:N214 \- CONFERENCE_\{13559\},hourly; !- [J]
Output:Meter,InteriorLights:Electricity:Zone:N214 \- CONFERENCE_\{13559\},hourly; !- [J]
Output:Meter:Cumulative,InteriorLights:Electricity:Zone:N214 \- CONFERENCE_\{13559\},hourly; !- [J]
Output:Meter,General:InteriorLights:Electricity:Zone:N214 \- CONFERENCE_\{13559\},hourly; !- [J]
Output:Meter:Cumulative,General:InteriorLights:Electricity:Zone:N214 \- CONFERENCE_\{13559\},hourly; !- [J]
Output:Meter,Electricity:Zone:N215 \- CORRIDOR_\{13552\},hourly; !- [J]
Output:Meter:Cumulative,Electricity:Zone:N215 \- CORRIDOR_\{13552\},hourly; !- [J]
Output:Meter,InteriorLights:Electricity:Zone:N215 \- CORRIDOR_\{13552\},hourly; !- [J]
Output:Meter:Cumulative,InteriorLights:Electricity:Zone:N215 \- CORRIDOR_\{13552\},hourly; !- [J]
Output:Meter,General:InteriorLights:Electricity:Zone:N215 \- CORRIDOR_\{13552\},hourly; !- [J]
Output:Meter:Cumulative,General:InteriorLights:Electricity:Zone:N215 \- CORRIDOR_\{13552\},hourly; !- [J]
Output:Meter,Electricity:Zone:N216 \- MULTIPURPOSE_\{13545\},hourly; !- [J]
Output:Meter:Cumulative,Electricity:Zone:N216 \- MULTIPURPOSE_\{13545\},hourly; !- [J]
Output:Meter,InteriorLights:Electricity:Zone:N216 \- MULTIPURPOSE_\{13545\},hourly; !- [J]
Output:Meter:Cumulative,InteriorLights:Electricity:Zone:N216 \- MULTIPURPOSE_\{13545\},hourly; !- [J]
Output:Meter,General:InteriorLights:Electricity:Zone:N216 \- MULTIPURPOSE_\{13545\},hourly; !- [J]
Output:Meter:Cumulative,General:InteriorLights:Electricity:Zone:N216 \- MULTIPURPOSE_\{13545\},hourly; !- [J]
Output:Meter,Electricity:Zone:N217 \- VESTIBULE_\{13538\},hourly; !- [J]
Output:Meter:Cumulative,Electricity:Zone:N217 \- VESTIBULE_\{13538\},hourly; !- [J]
Output:Meter,InteriorLights:Electricity:Zone:N217 \- VESTIBULE_\{13538\},hourly; !- [J]
Output:Meter:Cumulative,InteriorLights:Electricity:Zone:N217 \- VESTIBULE_\{13538\},hourly; !- [J]
Output:Meter,General:InteriorLights:Electricity:Zone:N217 \- VESTIBULE_\{13538\},hourly; !- [J]
Output:Meter:Cumulative,General:InteriorLights:Electricity:Zone:N217 \- VESTIBULE_\{13538\},hourly; !- [J]
Output:Meter,Electricity:Zone:N218 \- VISITOR OFFICE_\{13531\},hourly; !- [J]
Output:Meter:Cumulative,Electricity:Zone:N218 \- VISITOR OFFICE_\{13531\},hourly; !- [J]
Output:Meter,InteriorLights:Electricity:Zone:N218 \- VISITOR OFFICE_\{13531\},hourly; !- [J]
Output:Meter:Cumulative,InteriorLights:Electricity:Zone:N218 \- VISITOR OFFICE_\{13531\},hourly; !- [J]
Output:Meter,General:InteriorLights:Electricity:Zone:N218 \- VISITOR OFFICE_\{13531\},hourly; !- [J]
Output:Meter:Cumulative,General:InteriorLights:Electricity:Zone:N218 \- VISITOR OFFICE_\{13531\},hourly; !- [J]
Output:Meter,Electricity:Zone:N219 \- VISITOR OFFICE_\{13524\},hourly; !- [J]
Output:Meter:Cumulative,Electricity:Zone:N219 \- VISITOR OFFICE_\{13524\},hourly; !- [J]
Output:Meter,InteriorLights:Electricity:Zone:N219 \- VISITOR OFFICE_\{13524\},hourly; !- [J]
Output:Meter:Cumulative,InteriorLights:Electricity:Zone:N219 \- VISITOR OFFICE_\{13524\},hourly; !- [J]
Output:Meter,General:InteriorLights:Electricity:Zone:N219 \- VISITOR OFFICE_\{13524\},hourly; !- [J]
Output:Meter:Cumulative,General:InteriorLights:Electricity:Zone:N219 \- VISITOR OFFICE_\{13524\},hourly; !- [J]
Output:Meter,Electricity:Zone:N220 \- CONFERENCE ROOM_\{13624\},hourly; !- [J]
Output:Meter:Cumulative,Electricity:Zone:N220 \- CONFERENCE ROOM_\{13624\},hourly; !- [J]
Output:Meter,InteriorLights:Electricity:Zone:N220 \- CONFERENCE ROOM_\{13624\},hourly; !- [J]
Output:Meter:Cumulative,InteriorLights:Electricity:Zone:N220 \- CONFERENCE ROOM_\{13624\},hourly; !- [J]
Output:Meter,General:InteriorLights:Electricity:Zone:N220 \- CONFERENCE ROOM_\{13624\},hourly; !- [J]
Output:Meter:Cumulative,General:InteriorLights:Electricity:Zone:N220 \- CONFERENCE ROOM_\{13624\},hourly; !- [J]
Output:Meter,Electricity:Zone:N221 \- PANTRY_\{13517\},hourly; !- [J]
Output:Meter:Cumulative,Electricity:Zone:N221 \- PANTRY_\{13517\},hourly; !- [J]
Output:Meter,InteriorLights:Electricity:Zone:N221 \- PANTRY_\{13517\},hourly; !- [J]
Output:Meter:Cumulative,InteriorLights:Electricity:Zone:N221 \- PANTRY_\{13517\},hourly; !- [J]
Output:Meter,General:InteriorLights:Electricity:Zone:N221 \- PANTRY_\{13517\},hourly; !- [J]
Output:Meter:Cumulative,General:InteriorLights:Electricity:Zone:N221 \- PANTRY_\{13517\},hourly; !- [J]
Output:Meter,Electricity:Zone:N225 \- STORAGE_\{13510\},hourly; !- [J]
Output:Meter:Cumulative,Electricity:Zone:N225 \- STORAGE_\{13510\},hourly; !- [J]
Output:Meter,InteriorLights:Electricity:Zone:N225 \- STORAGE_\{13510\},hourly; !- [J]
Output:Meter:Cumulative,InteriorLights:Electricity:Zone:N225 \- STORAGE_\{13510\},hourly; !- [J]
Output:Meter,General:InteriorLights:Electricity:Zone:N225 \- STORAGE_\{13510\},hourly; !- [J]
Output:Meter:Cumulative,General:InteriorLights:Electricity:Zone:N225 \- STORAGE_\{13510\},hourly; !- [J]
Output:Meter,Electricity:Zone:N226 \- CORRIDOR_\{13503\},hourly; !- [J]
Output:Meter:Cumulative,Electricity:Zone:N226 \- CORRIDOR_\{13503\},hourly; !- [J]
Output:Meter,InteriorLights:Electricity:Zone:N226 \- CORRIDOR_\{13503\},hourly; !- [J]
Output:Meter:Cumulative,InteriorLights:Electricity:Zone:N226 \- CORRIDOR_\{13503\},hourly; !- [J]
Output:Meter,General:InteriorLights:Electricity:Zone:N226 \- CORRIDOR_\{13503\},hourly; !- [J]
Output:Meter:Cumulative,General:InteriorLights:Electricity:Zone:N226 \- CORRIDOR_\{13503\},hourly; !- [J]
Output:Meter,Electricity:Zone:N227 \- A/V_\{13496\},hourly; !- [J]
Output:Meter:Cumulative,Electricity:Zone:N227 \- A/V_\{13496\},hourly; !- [J]
Output:Meter,InteriorLights:Electricity:Zone:N227 \- A/V_\{13496\},hourly; !- [J]
Output:Meter:Cumulative,InteriorLights:Electricity:Zone:N227 \- A/V_\{13496\},hourly; !- [J]
Output:Meter,General:InteriorLights:Electricity:Zone:N227 \- A/V_\{13496\},hourly; !- [J]
Output:Meter:Cumulative,General:InteriorLights:Electricity:Zone:N227 \- A/V_\{13496\},hourly; !- [J]
Output:Meter,Electricity:Zone:N230 \- CUSTEXP \- VRF4_\{13489\},hourly; !- [J]
Output:Meter:Cumulative,Electricity:Zone:N230 \- CUSTEXP \- VRF4_\{13489\},hourly; !- [J]
Output:Meter,InteriorLights:Electricity:Zone:N230 \- CUSTEXP \- VRF4_\{13489\},hourly; !- [J]
Output:Meter:Cumulative,InteriorLights:Electricity:Zone:N230 \- CUSTEXP \- VRF4_\{13489\},hourly; !- [J]
Output:Meter,General:InteriorLights:Electricity:Zone:N230 \- CUSTEXP \- VRF4_\{13489\},hourly; !- [J]
Output:Meter:Cumulative,General:InteriorLights:Electricity:Zone:N230 \- CUSTEXP \- VRF4_\{13489\},hourly; !- [J]
Output:Meter,Electricity:Zone:N231 \- CUSTEXP AHU_\{13482\},hourly; !- [J]
Output:Meter:Cumulative,Electricity:Zone:N231 \- CUSTEXP AHU_\{13482\},hourly; !- [J]
Output:Meter,InteriorLights:Electricity:Zone:N231 \- CUSTEXP AHU_\{13482\},hourly; !- [J]
Output:Meter:Cumulative,InteriorLights:Electricity:Zone:N231 \- CUSTEXP AHU_\{13482\},hourly; !- [J]
Output:Meter,General:InteriorLights:Electricity:Zone:N231 \- CUSTEXP AHU_\{13482\},hourly; !- [J]
Output:Meter:Cumulative,General:InteriorLights:Electricity:Zone:N231 \- CUSTEXP AHU_\{13482\},hourly; !- [J]
Output:Meter,Electricity:Zone:N232 \- CUSTEXP \- WSHP_\{13475\},hourly; !- [J]
Output:Meter:Cumulative,Electricity:Zone:N232 \- CUSTEXP \- WSHP_\{13475\},hourly; !- [J]
Output:Meter,InteriorLights:Electricity:Zone:N232 \- CUSTEXP \- WSHP_\{13475\},hourly; !- [J]
Output:Meter:Cumulative,InteriorLights:Electricity:Zone:N232 \- CUSTEXP \- WSHP_\{13475\},hourly; !- [J]
Output:Meter,General:InteriorLights:Electricity:Zone:N232 \- CUSTEXP \- WSHP_\{13475\},hourly; !- [J]
Output:Meter:Cumulative,General:InteriorLights:Electricity:Zone:N232 \- CUSTEXP \- WSHP_\{13475\},hourly; !- [J]
Output:Meter,Electricity:Zone:N233 \- CUSTEXP \- VRF1_\{13468\},hourly; !- [J]
Output:Meter:Cumulative,Electricity:Zone:N233 \- CUSTEXP \- VRF1_\{13468\},hourly; !- [J]
Output:Meter,InteriorLights:Electricity:Zone:N233 \- CUSTEXP \- VRF1_\{13468\},hourly; !- [J]
Output:Meter:Cumulative,InteriorLights:Electricity:Zone:N233 \- CUSTEXP \- VRF1_\{13468\},hourly; !- [J]
Output:Meter,General:InteriorLights:Electricity:Zone:N233 \- CUSTEXP \- VRF1_\{13468\},hourly; !- [J]
Output:Meter:Cumulative,General:InteriorLights:Electricity:Zone:N233 \- CUSTEXP \- VRF1_\{13468\},hourly; !- [J]
Output:Meter,Electricity:Zone:N234 \- CUSTEXP \- VRF 2_\{13461\},hourly; !- [J]
Output:Meter:Cumulative,Electricity:Zone:N234 \- CUSTEXP \- VRF 2_\{13461\},hourly; !- [J]
Output:Meter,InteriorLights:Electricity:Zone:N234 \- CUSTEXP \- VRF 2_\{13461\},hourly; !- [J]
Output:Meter:Cumulative,InteriorLights:Electricity:Zone:N234 \- CUSTEXP \- VRF 2_\{13461\},hourly; !- [J]
Output:Meter,General:InteriorLights:Electricity:Zone:N234 \- CUSTEXP \- VRF 2_\{13461\},hourly; !- [J]
Output:Meter:Cumulative,General:InteriorLights:Electricity:Zone:N234 \- CUSTEXP \- VRF 2_\{13461\},hourly; !- [J]
Output:Meter,Electricity:Zone:N235 \- CUSTEXP \- VRF3_\{13454\},hourly; !- [J]
Output:Meter:Cumulative,Electricity:Zone:N235 \- CUSTEXP \- VRF3_\{13454\},hourly; !- [J]
Output:Meter,InteriorLights:Electricity:Zone:N235 \- CUSTEXP \- VRF3_\{13454\},hourly; !- [J]
Output:Meter:Cumulative,InteriorLights:Electricity:Zone:N235 \- CUSTEXP \- VRF3_\{13454\},hourly; !- [J]
Output:Meter,General:InteriorLights:Electricity:Zone:N235 \- CUSTEXP \- VRF3_\{13454\},hourly; !- [J]
Output:Meter:Cumulative,General:InteriorLights:Electricity:Zone:N235 \- CUSTEXP \- VRF3_\{13454\},hourly; !- [J]
Output:Meter,Electricity:Zone:N289 \- ELEVATOR 5_\{13447\},hourly; !- [J]
Output:Meter:Cumulative,Electricity:Zone:N289 \- ELEVATOR 5_\{13447\},hourly; !- [J]
Output:Meter,InteriorLights:Electricity:Zone:N289 \- ELEVATOR 5_\{13447\},hourly; !- [J]
Output:Meter:Cumulative,InteriorLights:Electricity:Zone:N289 \- ELEVATOR 5_\{13447\},hourly; !- [J]
Output:Meter,General:InteriorLights:Electricity:Zone:N289 \- ELEVATOR 5_\{13447\},hourly; !- [J]
Output:Meter:Cumulative,General:InteriorLights:Electricity:Zone:N289 \- ELEVATOR 5_\{13447\},hourly; !- [J]
Output:Meter,Electricity:Zone:N298 \- STAIR 5_\{13440\},hourly; !- [J]
Output:Meter:Cumulative,Electricity:Zone:N298 \- STAIR 5_\{13440\},hourly; !- [J]
Output:Meter,InteriorLights:Electricity:Zone:N298 \- STAIR 5_\{13440\},hourly; !- [J]
Output:Meter:Cumulative,InteriorLights:Electricity:Zone:N298 \- STAIR 5_\{13440\},hourly; !- [J]
Output:Meter,General:InteriorLights:Electricity:Zone:N298 \- STAIR 5_\{13440\},hourly; !- [J]
Output:Meter:Cumulative,General:InteriorLights:Electricity:Zone:N298 \- STAIR 5_\{13440\},hourly; !- [J]
Output:Meter,Electricity:Zone:N299 \- STAIR 6_\{13433\},hourly; !- [J]
Output:Meter:Cumulative,Electricity:Zone:N299 \- STAIR 6_\{13433\},hourly; !- [J]
Output:Meter,InteriorLights:Electricity:Zone:N299 \- STAIR 6_\{13433\},hourly; !- [J]
Output:Meter:Cumulative,InteriorLights:Electricity:Zone:N299 \- STAIR 6_\{13433\},hourly; !- [J]
Output:Meter,General:InteriorLights:Electricity:Zone:N299 \- STAIR 6_\{13433\},hourly; !- [J]
Output:Meter:Cumulative,General:InteriorLights:Electricity:Zone:N299 \- STAIR 6_\{13433\},hourly; !- [J]
Output:Meter,Electricity:Zone:N301 \- CORRIDOR_\{13426\},hourly; !- [J]
Output:Meter:Cumulative,Electricity:Zone:N301 \- CORRIDOR_\{13426\},hourly; !- [J]
Output:Meter,InteriorLights:Electricity:Zone:N301 \- CORRIDOR_\{13426\},hourly; !- [J]
Output:Meter:Cumulative,InteriorLights:Electricity:Zone:N301 \- CORRIDOR_\{13426\},hourly; !- [J]
Output:Meter,General:InteriorLights:Electricity:Zone:N301 \- CORRIDOR_\{13426\},hourly; !- [J]
Output:Meter:Cumulative,General:InteriorLights:Electricity:Zone:N301 \- CORRIDOR_\{13426\},hourly; !- [J]
Output:Meter,Electricity:Zone:N302 \- JANITOR\'S ROOM_\{13419\},hourly; !- [J]
Output:Meter:Cumulative,Electricity:Zone:N302 \- JANITOR\'S ROOM_\{13419\},hourly; !- [J]
Output:Meter,InteriorLights:Electricity:Zone:N302 \- JANITOR\'S ROOM_\{13419\},hourly; !- [J]
Output:Meter:Cumulative,InteriorLights:Electricity:Zone:N302 \- JANITOR\'S ROOM_\{13419\},hourly; !- [J]
Output:Meter,General:InteriorLights:Electricity:Zone:N302 \- JANITOR\'S ROOM_\{13419\},hourly; !- [J]
Output:Meter:Cumulative,General:InteriorLights:Electricity:Zone:N302 \- JANITOR\'S ROOM_\{13419\},hourly; !- [J]
Output:Meter,Electricity:Zone:N303 \- WOMEN\'S RESTROOM_\{13412\},hourly; !- [J]
Output:Meter:Cumulative,Electricity:Zone:N303 \- WOMEN\'S RESTROOM_\{13412\},hourly; !- [J]
Output:Meter,InteriorLights:Electricity:Zone:N303 \- WOMEN\'S RESTROOM_\{13412\},hourly; !- [J]
Output:Meter:Cumulative,InteriorLights:Electricity:Zone:N303 \- WOMEN\'S RESTROOM_\{13412\},hourly; !- [J]
Output:Meter,General:InteriorLights:Electricity:Zone:N303 \- WOMEN\'S RESTROOM_\{13412\},hourly; !- [J]
Output:Meter:Cumulative,General:InteriorLights:Electricity:Zone:N303 \- WOMEN\'S RESTROOM_\{13412\},hourly; !- [J]
Output:Meter,Electricity:Zone:N304 \- MEN\'S RESTROOM_\{13405\},hourly; !- [J]
Output:Meter:Cumulative,Electricity:Zone:N304 \- MEN\'S RESTROOM_\{13405\},hourly; !- [J]
Output:Meter,InteriorLights:Electricity:Zone:N304 \- MEN\'S RESTROOM_\{13405\},hourly; !- [J]
Output:Meter:Cumulative,InteriorLights:Electricity:Zone:N304 \- MEN\'S RESTROOM_\{13405\},hourly; !- [J]
Output:Meter,General:InteriorLights:Electricity:Zone:N304 \- MEN\'S RESTROOM_\{13405\},hourly; !- [J]
Output:Meter:Cumulative,General:InteriorLights:Electricity:Zone:N304 \- MEN\'S RESTROOM_\{13405\},hourly; !- [J]
Output:Meter,Electricity:Zone:N305 \- ELECTRICAL ROOM_\{13398\},hourly; !- [J]
Output:Meter:Cumulative,Electricity:Zone:N305 \- ELECTRICAL ROOM_\{13398\},hourly; !- [J]
Output:Meter,InteriorLights:Electricity:Zone:N305 \- ELECTRICAL ROOM_\{13398\},hourly; !- [J]
Output:Meter:Cumulative,InteriorLights:Electricity:Zone:N305 \- ELECTRICAL ROOM_\{13398\},hourly; !- [J]
Output:Meter,General:InteriorLights:Electricity:Zone:N305 \- ELECTRICAL ROOM_\{13398\},hourly; !- [J]
Output:Meter:Cumulative,General:InteriorLights:Electricity:Zone:N305 \- ELECTRICAL ROOM_\{13398\},hourly; !- [J]
Output:Meter,Electricity:Zone:N307 \- AV_\{13391\},hourly; !- [J]
Output:Meter:Cumulative,Electricity:Zone:N307 \- AV_\{13391\},hourly; !- [J]
Output:Meter,InteriorLights:Electricity:Zone:N307 \- AV_\{13391\},hourly; !- [J]
Output:Meter:Cumulative,InteriorLights:Electricity:Zone:N307 \- AV_\{13391\},hourly; !- [J]
Output:Meter,General:InteriorLights:Electricity:Zone:N307 \- AV_\{13391\},hourly; !- [J]
Output:Meter:Cumulative,General:InteriorLights:Electricity:Zone:N307 \- AV_\{13391\},hourly; !- [J]
Output:Meter,Electricity:Zone:N309 \- BREAKROOM_\{13384\},hourly; !- [J]
Output:Meter:Cumulative,Electricity:Zone:N309 \- BREAKROOM_\{13384\},hourly; !- [J]
Output:Meter,InteriorLights:Electricity:Zone:N309 \- BREAKROOM_\{13384\},hourly; !- [J]
Output:Meter:Cumulative,InteriorLights:Electricity:Zone:N309 \- BREAKROOM_\{13384\},hourly; !- [J]
Output:Meter,General:InteriorLights:Electricity:Zone:N309 \- BREAKROOM_\{13384\},hourly; !- [J]
Output:Meter:Cumulative,General:InteriorLights:Electricity:Zone:N309 \- BREAKROOM_\{13384\},hourly; !- [J]
Output:Meter,Electricity:Zone:N310 \- MOTHER\'S ROOM_\{13377\},hourly; !- [J]
Output:Meter:Cumulative,Electricity:Zone:N310 \- MOTHER\'S ROOM_\{13377\},hourly; !- [J]
Output:Meter,InteriorLights:Electricity:Zone:N310 \- MOTHER\'S ROOM_\{13377\},hourly; !- [J]
Output:Meter:Cumulative,InteriorLights:Electricity:Zone:N310 \- MOTHER\'S ROOM_\{13377\},hourly; !- [J]
Output:Meter,General:InteriorLights:Electricity:Zone:N310 \- MOTHER\'S ROOM_\{13377\},hourly; !- [J]
Output:Meter:Cumulative,General:InteriorLights:Electricity:Zone:N310 \- MOTHER\'S ROOM_\{13377\},hourly; !- [J]
Output:Meter,Electricity:Zone:N313A INTERIOR \- OPEN OFFICE_\{13370\},hourly; !- [J]
Output:Meter:Cumulative,Electricity:Zone:N313A INTERIOR \- OPEN OFFICE_\{13370\},hourly; !- [J]
Output:Meter,InteriorLights:Electricity:Zone:N313A INTERIOR \- OPEN OFFICE_\{13370\},hourly; !- [J]
Output:Meter:Cumulative,InteriorLights:Electricity:Zone:N313A INTERIOR \- OPEN OFFICE_\{13370\},hourly; !- [J]
Output:Meter,General:InteriorLights:Electricity:Zone:N313A INTERIOR \- OPEN OFFICE_\{13370\},hourly; !- [J]
Output:Meter:Cumulative,General:InteriorLights:Electricity:Zone:N313A INTERIOR \- OPEN OFFICE_\{13370\},hourly; !- [J]
Output:Meter,Electricity:Zone:N313A PERIMETER \- OPEN OFFICE_\{13363\},hourly; !- [J]
Output:Meter:Cumulative,Electricity:Zone:N313A PERIMETER \- OPEN OFFICE_\{13363\},hourly; !- [J]
Output:Meter,InteriorLights:Electricity:Zone:N313A PERIMETER \- OPEN OFFICE_\{13363\},hourly; !- [J]
Output:Meter:Cumulative,InteriorLights:Electricity:Zone:N313A PERIMETER \- OPEN OFFICE_\{13363\},hourly; !- [J]
Output:Meter,General:InteriorLights:Electricity:Zone:N313A PERIMETER \- OPEN OFFICE_\{13363\},hourly; !- [J]
Output:Meter:Cumulative,General:InteriorLights:Electricity:Zone:N313A PERIMETER \- OPEN OFFICE_\{13363\},hourly; !- [J]
Output:Meter,Electricity:Zone:N313B INTERIOR \- OPEN OFFICE_\{13356\},hourly; !- [J]
Output:Meter:Cumulative,Electricity:Zone:N313B INTERIOR \- OPEN OFFICE_\{13356\},hourly; !- [J]
Output:Meter,InteriorLights:Electricity:Zone:N313B INTERIOR \- OPEN OFFICE_\{13356\},hourly; !- [J]
Output:Meter:Cumulative,InteriorLights:Electricity:Zone:N313B INTERIOR \- OPEN OFFICE_\{13356\},hourly; !- [J]
Output:Meter,General:InteriorLights:Electricity:Zone:N313B INTERIOR \- OPEN OFFICE_\{13356\},hourly; !- [J]
Output:Meter:Cumulative,General:InteriorLights:Electricity:Zone:N313B INTERIOR \- OPEN OFFICE_\{13356\},hourly; !- [J]
Output:Meter,Electricity:Zone:N313B PERIMETER \- OPEN OFFICE_\{13349\},hourly; !- [J]
Output:Meter:Cumulative,Electricity:Zone:N313B PERIMETER \- OPEN OFFICE_\{13349\},hourly; !- [J]
Output:Meter,InteriorLights:Electricity:Zone:N313B PERIMETER \- OPEN OFFICE_\{13349\},hourly; !- [J]
Output:Meter:Cumulative,InteriorLights:Electricity:Zone:N313B PERIMETER \- OPEN OFFICE_\{13349\},hourly; !- [J]
Output:Meter,General:InteriorLights:Electricity:Zone:N313B PERIMETER \- OPEN OFFICE_\{13349\},hourly; !- [J]
Output:Meter:Cumulative,General:InteriorLights:Electricity:Zone:N313B PERIMETER \- OPEN OFFICE_\{13349\},hourly; !- [J]
Output:Meter,Electricity:Zone:N315 \- COPY_\{13342\},hourly; !- [J]
Output:Meter:Cumulative,Electricity:Zone:N315 \- COPY_\{13342\},hourly; !- [J]
Output:Meter,InteriorLights:Electricity:Zone:N315 \- COPY_\{13342\},hourly; !- [J]
Output:Meter:Cumulative,InteriorLights:Electricity:Zone:N315 \- COPY_\{13342\},hourly; !- [J]
Output:Meter,General:InteriorLights:Electricity:Zone:N315 \- COPY_\{13342\},hourly; !- [J]
Output:Meter:Cumulative,General:InteriorLights:Electricity:Zone:N315 \- COPY_\{13342\},hourly; !- [J]
Output:Meter,Electricity:Zone:N316 \- BOOTH_\{13335\},hourly; !- [J]
Output:Meter:Cumulative,Electricity:Zone:N316 \- BOOTH_\{13335\},hourly; !- [J]
Output:Meter,InteriorLights:Electricity:Zone:N316 \- BOOTH_\{13335\},hourly; !- [J]
Output:Meter:Cumulative,InteriorLights:Electricity:Zone:N316 \- BOOTH_\{13335\},hourly; !- [J]
Output:Meter,General:InteriorLights:Electricity:Zone:N316 \- BOOTH_\{13335\},hourly; !- [J]
Output:Meter:Cumulative,General:InteriorLights:Electricity:Zone:N316 \- BOOTH_\{13335\},hourly; !- [J]
Output:Meter,Electricity:Zone:N317A \- UNCONDITIONED_\{13328\},hourly; !- [J]
Output:Meter:Cumulative,Electricity:Zone:N317A \- UNCONDITIONED_\{13328\},hourly; !- [J]
Output:Meter,InteriorLights:Electricity:Zone:N317A \- UNCONDITIONED_\{13328\},hourly; !- [J]
Output:Meter:Cumulative,InteriorLights:Electricity:Zone:N317A \- UNCONDITIONED_\{13328\},hourly; !- [J]
Output:Meter,General:InteriorLights:Electricity:Zone:N317A \- UNCONDITIONED_\{13328\},hourly; !- [J]
Output:Meter:Cumulative,General:InteriorLights:Electricity:Zone:N317A \- UNCONDITIONED_\{13328\},hourly; !- [J]
Output:Meter,Electricity:Zone:N317B \- UNCONDITIONED_\{13321\},hourly; !- [J]
Output:Meter:Cumulative,Electricity:Zone:N317B \- UNCONDITIONED_\{13321\},hourly; !- [J]
Output:Meter,InteriorLights:Electricity:Zone:N317B \- UNCONDITIONED_\{13321\},hourly; !- [J]
Output:Meter:Cumulative,InteriorLights:Electricity:Zone:N317B \- UNCONDITIONED_\{13321\},hourly; !- [J]
Output:Meter,General:InteriorLights:Electricity:Zone:N317B \- UNCONDITIONED_\{13321\},hourly; !- [J]
Output:Meter:Cumulative,General:InteriorLights:Electricity:Zone:N317B \- UNCONDITIONED_\{13321\},hourly; !- [J]
Output:Meter,Electricity:Zone:N317C \- UNCONDITIONED_\{13314\},hourly; !- [J]
Output:Meter:Cumulative,Electricity:Zone:N317C \- UNCONDITIONED_\{13314\},hourly; !- [J]
Output:Meter,InteriorLights:Electricity:Zone:N317C \- UNCONDITIONED_\{13314\},hourly; !- [J]
Output:Meter:Cumulative,InteriorLights:Electricity:Zone:N317C \- UNCONDITIONED_\{13314\},hourly; !- [J]
Output:Meter,General:InteriorLights:Electricity:Zone:N317C \- UNCONDITIONED_\{13314\},hourly; !- [J]
Output:Meter:Cumulative,General:InteriorLights:Electricity:Zone:N317C \- UNCONDITIONED_\{13314\},hourly; !- [J]
Output:Meter,Electricity:Zone:N318 \- OFFICE_\{13307\},hourly; !- [J]
Output:Meter:Cumulative,Electricity:Zone:N318 \- OFFICE_\{13307\},hourly; !- [J]
Output:Meter,InteriorLights:Electricity:Zone:N318 \- OFFICE_\{13307\},hourly; !- [J]
Output:Meter:Cumulative,InteriorLights:Electricity:Zone:N318 \- OFFICE_\{13307\},hourly; !- [J]
Output:Meter,General:InteriorLights:Electricity:Zone:N318 \- OFFICE_\{13307\},hourly; !- [J]
Output:Meter:Cumulative,General:InteriorLights:Electricity:Zone:N318 \- OFFICE_\{13307\},hourly; !- [J]
Output:Meter,Electricity:Zone:N319 \- OFFICE_\{13300\},hourly; !- [J]
Output:Meter:Cumulative,Electricity:Zone:N319 \- OFFICE_\{13300\},hourly; !- [J]
Output:Meter,InteriorLights:Electricity:Zone:N319 \- OFFICE_\{13300\},hourly; !- [J]
Output:Meter:Cumulative,InteriorLights:Electricity:Zone:N319 \- OFFICE_\{13300\},hourly; !- [J]
Output:Meter,General:InteriorLights:Electricity:Zone:N319 \- OFFICE_\{13300\},hourly; !- [J]
Output:Meter:Cumulative,General:InteriorLights:Electricity:Zone:N319 \- OFFICE_\{13300\},hourly; !- [J]
Output:Meter,Electricity:Zone:N320 \- OFFICE_\{13293\},hourly; !- [J]
Output:Meter:Cumulative,Electricity:Zone:N320 \- OFFICE_\{13293\},hourly; !- [J]
Output:Meter,InteriorLights:Electricity:Zone:N320 \- OFFICE_\{13293\},hourly; !- [J]
Output:Meter:Cumulative,InteriorLights:Electricity:Zone:N320 \- OFFICE_\{13293\},hourly; !- [J]
Output:Meter,General:InteriorLights:Electricity:Zone:N320 \- OFFICE_\{13293\},hourly; !- [J]
Output:Meter:Cumulative,General:InteriorLights:Electricity:Zone:N320 \- OFFICE_\{13293\},hourly; !- [J]
Output:Meter,Electricity:Zone:N321 \- OFFICE_\{13286\},hourly; !- [J]
Output:Meter:Cumulative,Electricity:Zone:N321 \- OFFICE_\{13286\},hourly; !- [J]
Output:Meter,InteriorLights:Electricity:Zone:N321 \- OFFICE_\{13286\},hourly; !- [J]
Output:Meter:Cumulative,InteriorLights:Electricity:Zone:N321 \- OFFICE_\{13286\},hourly; !- [J]
Output:Meter,General:InteriorLights:Electricity:Zone:N321 \- OFFICE_\{13286\},hourly; !- [J]
Output:Meter:Cumulative,General:InteriorLights:Electricity:Zone:N321 \- OFFICE_\{13286\},hourly; !- [J]
Output:Meter,Electricity:Zone:N326 \- OPEN OFFICE_\{13279\},hourly; !- [J]
Output:Meter:Cumulative,Electricity:Zone:N326 \- OPEN OFFICE_\{13279\},hourly; !- [J]
Output:Meter,InteriorLights:Electricity:Zone:N326 \- OPEN OFFICE_\{13279\},hourly; !- [J]
Output:Meter:Cumulative,InteriorLights:Electricity:Zone:N326 \- OPEN OFFICE_\{13279\},hourly; !- [J]
Output:Meter,General:InteriorLights:Electricity:Zone:N326 \- OPEN OFFICE_\{13279\},hourly; !- [J]
Output:Meter:Cumulative,General:InteriorLights:Electricity:Zone:N326 \- OPEN OFFICE_\{13279\},hourly; !- [J]
Output:Meter,Electricity:Zone:N327 \- EXECUTIVE OFFICE_\{13272\},hourly; !- [J]
Output:Meter:Cumulative,Electricity:Zone:N327 \- EXECUTIVE OFFICE_\{13272\},hourly; !- [J]
Output:Meter,InteriorLights:Electricity:Zone:N327 \- EXECUTIVE OFFICE_\{13272\},hourly; !- [J]
Output:Meter:Cumulative,InteriorLights:Electricity:Zone:N327 \- EXECUTIVE OFFICE_\{13272\},hourly; !- [J]
Output:Meter,General:InteriorLights:Electricity:Zone:N327 \- EXECUTIVE OFFICE_\{13272\},hourly; !- [J]
Output:Meter:Cumulative,General:InteriorLights:Electricity:Zone:N327 \- EXECUTIVE OFFICE_\{13272\},hourly; !- [J]
Output:Meter,Electricity:Zone:N328 \- EXECUTIVE OFFICE_\{13265\},hourly; !- [J]
Output:Meter:Cumulative,Electricity:Zone:N328 \- EXECUTIVE OFFICE_\{13265\},hourly; !- [J]
Output:Meter,InteriorLights:Electricity:Zone:N328 \- EXECUTIVE OFFICE_\{13265\},hourly; !- [J]
Output:Meter:Cumulative,InteriorLights:Electricity:Zone:N328 \- EXECUTIVE OFFICE_\{13265\},hourly; !- [J]
Output:Meter,General:InteriorLights:Electricity:Zone:N328 \- EXECUTIVE OFFICE_\{13265\},hourly; !- [J]
Output:Meter:Cumulative,General:InteriorLights:Electricity:Zone:N328 \- EXECUTIVE OFFICE_\{13265\},hourly; !- [J]
Output:Meter,Electricity:Zone:N329 \- EXECUTIVE OFFICE_\{13258\},hourly; !- [J]
Output:Meter:Cumulative,Electricity:Zone:N329 \- EXECUTIVE OFFICE_\{13258\},hourly; !- [J]
Output:Meter,InteriorLights:Electricity:Zone:N329 \- EXECUTIVE OFFICE_\{13258\},hourly; !- [J]
Output:Meter:Cumulative,InteriorLights:Electricity:Zone:N329 \- EXECUTIVE OFFICE_\{13258\},hourly; !- [J]
Output:Meter,General:InteriorLights:Electricity:Zone:N329 \- EXECUTIVE OFFICE_\{13258\},hourly; !- [J]
Output:Meter:Cumulative,General:InteriorLights:Electricity:Zone:N329 \- EXECUTIVE OFFICE_\{13258\},hourly; !- [J]
Output:Meter,Electricity:Zone:N330 \- OPEN OFFICE_\{13251\},hourly; !- [J]
Output:Meter:Cumulative,Electricity:Zone:N330 \- OPEN OFFICE_\{13251\},hourly; !- [J]
Output:Meter,InteriorLights:Electricity:Zone:N330 \- OPEN OFFICE_\{13251\},hourly; !- [J]
Output:Meter:Cumulative,InteriorLights:Electricity:Zone:N330 \- OPEN OFFICE_\{13251\},hourly; !- [J]
Output:Meter,General:InteriorLights:Electricity:Zone:N330 \- OPEN OFFICE_\{13251\},hourly; !- [J]
Output:Meter:Cumulative,General:InteriorLights:Electricity:Zone:N330 \- OPEN OFFICE_\{13251\},hourly; !- [J]
Output:Meter,Electricity:Zone:N331 \- EXECUTIVE OFFICE_\{13244\},hourly; !- [J]
Output:Meter:Cumulative,Electricity:Zone:N331 \- EXECUTIVE OFFICE_\{13244\},hourly; !- [J]
Output:Meter,InteriorLights:Electricity:Zone:N331 \- EXECUTIVE OFFICE_\{13244\},hourly; !- [J]
Output:Meter:Cumulative,InteriorLights:Electricity:Zone:N331 \- EXECUTIVE OFFICE_\{13244\},hourly; !- [J]
Output:Meter,General:InteriorLights:Electricity:Zone:N331 \- EXECUTIVE OFFICE_\{13244\},hourly; !- [J]
Output:Meter:Cumulative,General:InteriorLights:Electricity:Zone:N331 \- EXECUTIVE OFFICE_\{13244\},hourly; !- [J]
Output:Meter,Electricity:Zone:N334 \- OFFICE_\{13237\},hourly; !- [J]
Output:Meter:Cumulative,Electricity:Zone:N334 \- OFFICE_\{13237\},hourly; !- [J]
Output:Meter,InteriorLights:Electricity:Zone:N334 \- OFFICE_\{13237\},hourly; !- [J]
Output:Meter:Cumulative,InteriorLights:Electricity:Zone:N334 \- OFFICE_\{13237\},hourly; !- [J]
Output:Meter,General:InteriorLights:Electricity:Zone:N334 \- OFFICE_\{13237\},hourly; !- [J]
Output:Meter:Cumulative,General:InteriorLights:Electricity:Zone:N334 \- OFFICE_\{13237\},hourly; !- [J]
Output:Meter,Electricity:Zone:N335 \- OFFICE_\{13230\},hourly; !- [J]
Output:Meter:Cumulative,Electricity:Zone:N335 \- OFFICE_\{13230\},hourly; !- [J]
Output:Meter,InteriorLights:Electricity:Zone:N335 \- OFFICE_\{13230\},hourly; !- [J]
Output:Meter:Cumulative,InteriorLights:Electricity:Zone:N335 \- OFFICE_\{13230\},hourly; !- [J]
Output:Meter,General:InteriorLights:Electricity:Zone:N335 \- OFFICE_\{13230\},hourly; !- [J]
Output:Meter:Cumulative,General:InteriorLights:Electricity:Zone:N335 \- OFFICE_\{13230\},hourly; !- [J]
Output:Meter,Electricity:Zone:N336 \- OFFICE_\{13223\},hourly; !- [J]
Output:Meter:Cumulative,Electricity:Zone:N336 \- OFFICE_\{13223\},hourly; !- [J]
Output:Meter,InteriorLights:Electricity:Zone:N336 \- OFFICE_\{13223\},hourly; !- [J]
Output:Meter:Cumulative,InteriorLights:Electricity:Zone:N336 \- OFFICE_\{13223\},hourly; !- [J]
Output:Meter,General:InteriorLights:Electricity:Zone:N336 \- OFFICE_\{13223\},hourly; !- [J]
Output:Meter:Cumulative,General:InteriorLights:Electricity:Zone:N336 \- OFFICE_\{13223\},hourly; !- [J]
Output:Meter,Electricity:Zone:N337 \- OFFICE_\{13216\},hourly; !- [J]
Output:Meter:Cumulative,Electricity:Zone:N337 \- OFFICE_\{13216\},hourly; !- [J]
Output:Meter,InteriorLights:Electricity:Zone:N337 \- OFFICE_\{13216\},hourly; !- [J]
Output:Meter:Cumulative,InteriorLights:Electricity:Zone:N337 \- OFFICE_\{13216\},hourly; !- [J]
Output:Meter,General:InteriorLights:Electricity:Zone:N337 \- OFFICE_\{13216\},hourly; !- [J]
Output:Meter:Cumulative,General:InteriorLights:Electricity:Zone:N337 \- OFFICE_\{13216\},hourly; !- [J]
Output:Meter,Electricity:Zone:N338 \- OFFICE_\{13209\},hourly; !- [J]
Output:Meter:Cumulative,Electricity:Zone:N338 \- OFFICE_\{13209\},hourly; !- [J]
Output:Meter,InteriorLights:Electricity:Zone:N338 \- OFFICE_\{13209\},hourly; !- [J]
Output:Meter:Cumulative,InteriorLights:Electricity:Zone:N338 \- OFFICE_\{13209\},hourly; !- [J]
Output:Meter,General:InteriorLights:Electricity:Zone:N338 \- OFFICE_\{13209\},hourly; !- [J]
Output:Meter:Cumulative,General:InteriorLights:Electricity:Zone:N338 \- OFFICE_\{13209\},hourly; !- [J]
Output:Meter,Electricity:Zone:N339 \- OFFICE_\{13202\},hourly; !- [J]
Output:Meter:Cumulative,Electricity:Zone:N339 \- OFFICE_\{13202\},hourly; !- [J]
Output:Meter,InteriorLights:Electricity:Zone:N339 \- OFFICE_\{13202\},hourly; !- [J]
Output:Meter:Cumulative,InteriorLights:Electricity:Zone:N339 \- OFFICE_\{13202\},hourly; !- [J]
Output:Meter,General:InteriorLights:Electricity:Zone:N339 \- OFFICE_\{13202\},hourly; !- [J]
Output:Meter:Cumulative,General:InteriorLights:Electricity:Zone:N339 \- OFFICE_\{13202\},hourly; !- [J]
Output:Meter,Electricity:Zone:N389 \- ELEVATOR 5_\{13195\},hourly; !- [J]
Output:Meter:Cumulative,Electricity:Zone:N389 \- ELEVATOR 5_\{13195\},hourly; !- [J]
Output:Meter,InteriorLights:Electricity:Zone:N389 \- ELEVATOR 5_\{13195\},hourly; !- [J]
Output:Meter:Cumulative,InteriorLights:Electricity:Zone:N389 \- ELEVATOR 5_\{13195\},hourly; !- [J]
Output:Meter,General:InteriorLights:Electricity:Zone:N389 \- ELEVATOR 5_\{13195\},hourly; !- [J]
Output:Meter:Cumulative,General:InteriorLights:Electricity:Zone:N389 \- ELEVATOR 5_\{13195\},hourly; !- [J]
Output:Meter,Electricity:Zone:N398 \- STAIR 5_\{13188\},hourly; !- [J]
Output:Meter:Cumulative,Electricity:Zone:N398 \- STAIR 5_\{13188\},hourly; !- [J]
Output:Meter,InteriorLights:Electricity:Zone:N398 \- STAIR 5_\{13188\},hourly; !- [J]
Output:Meter:Cumulative,InteriorLights:Electricity:Zone:N398 \- STAIR 5_\{13188\},hourly; !- [J]
Output:Meter,General:InteriorLights:Electricity:Zone:N398 \- STAIR 5_\{13188\},hourly; !- [J]
Output:Meter:Cumulative,General:InteriorLights:Electricity:Zone:N398 \- STAIR 5_\{13188\},hourly; !- [J]
Output:Meter,Electricity:Zone:N399 \- STAIR 6_\{13181\},hourly; !- [J]
Output:Meter:Cumulative,Electricity:Zone:N399 \- STAIR 6_\{13181\},hourly; !- [J]
Output:Meter,InteriorLights:Electricity:Zone:N399 \- STAIR 6_\{13181\},hourly; !- [J]
Output:Meter:Cumulative,InteriorLights:Electricity:Zone:N399 \- STAIR 6_\{13181\},hourly; !- [J]
Output:Meter,General:InteriorLights:Electricity:Zone:N399 \- STAIR 6_\{13181\},hourly; !- [J]
Output:Meter:Cumulative,General:InteriorLights:Electricity:Zone:N399 \- STAIR 6_\{13181\},hourly; !- [J]
Output:Meter,Electricity:Zone:N401 \- CORRIDOR_\{13174\},hourly; !- [J]
Output:Meter:Cumulative,Electricity:Zone:N401 \- CORRIDOR_\{13174\},hourly; !- [J]
Output:Meter,InteriorLights:Electricity:Zone:N401 \- CORRIDOR_\{13174\},hourly; !- [J]
Output:Meter:Cumulative,InteriorLights:Electricity:Zone:N401 \- CORRIDOR_\{13174\},hourly; !- [J]
Output:Meter,General:InteriorLights:Electricity:Zone:N401 \- CORRIDOR_\{13174\},hourly; !- [J]
Output:Meter:Cumulative,General:InteriorLights:Electricity:Zone:N401 \- CORRIDOR_\{13174\},hourly; !- [J]
Output:Meter,Electricity:Zone:N402 \- JANITOR_\{13167\},hourly; !- [J]
Output:Meter:Cumulative,Electricity:Zone:N402 \- JANITOR_\{13167\},hourly; !- [J]
Output:Meter,InteriorLights:Electricity:Zone:N402 \- JANITOR_\{13167\},hourly; !- [J]
Output:Meter:Cumulative,InteriorLights:Electricity:Zone:N402 \- JANITOR_\{13167\},hourly; !- [J]
Output:Meter,General:InteriorLights:Electricity:Zone:N402 \- JANITOR_\{13167\},hourly; !- [J]
Output:Meter:Cumulative,General:InteriorLights:Electricity:Zone:N402 \- JANITOR_\{13167\},hourly; !- [J]
Output:Meter,Electricity:Zone:N402A \- UNCONDITIONED_\{13160\},hourly; !- [J]
Output:Meter:Cumulative,Electricity:Zone:N402A \- UNCONDITIONED_\{13160\},hourly; !- [J]
Output:Meter,InteriorLights:Electricity:Zone:N402A \- UNCONDITIONED_\{13160\},hourly; !- [J]
Output:Meter:Cumulative,InteriorLights:Electricity:Zone:N402A \- UNCONDITIONED_\{13160\},hourly; !- [J]
Output:Meter,General:InteriorLights:Electricity:Zone:N402A \- UNCONDITIONED_\{13160\},hourly; !- [J]
Output:Meter:Cumulative,General:InteriorLights:Electricity:Zone:N402A \- UNCONDITIONED_\{13160\},hourly; !- [J]
Output:Meter,Electricity:Zone:N403 \- WOMEN\'S RESTROOM_\{13153\},hourly; !- [J]
Output:Meter:Cumulative,Electricity:Zone:N403 \- WOMEN\'S RESTROOM_\{13153\},hourly; !- [J]
Output:Meter,InteriorLights:Electricity:Zone:N403 \- WOMEN\'S RESTROOM_\{13153\},hourly; !- [J]
Output:Meter:Cumulative,InteriorLights:Electricity:Zone:N403 \- WOMEN\'S RESTROOM_\{13153\},hourly; !- [J]
Output:Meter,General:InteriorLights:Electricity:Zone:N403 \- WOMEN\'S RESTROOM_\{13153\},hourly; !- [J]
Output:Meter:Cumulative,General:InteriorLights:Electricity:Zone:N403 \- WOMEN\'S RESTROOM_\{13153\},hourly; !- [J]
Output:Meter,Electricity:Zone:N404 \- MEN\'S RESTROOM_\{13146\},hourly; !- [J]
Output:Meter:Cumulative,Electricity:Zone:N404 \- MEN\'S RESTROOM_\{13146\},hourly; !- [J]
Output:Meter,InteriorLights:Electricity:Zone:N404 \- MEN\'S RESTROOM_\{13146\},hourly; !- [J]
Output:Meter:Cumulative,InteriorLights:Electricity:Zone:N404 \- MEN\'S RESTROOM_\{13146\},hourly; !- [J]
Output:Meter,General:InteriorLights:Electricity:Zone:N404 \- MEN\'S RESTROOM_\{13146\},hourly; !- [J]
Output:Meter:Cumulative,General:InteriorLights:Electricity:Zone:N404 \- MEN\'S RESTROOM_\{13146\},hourly; !- [J]
Output:Meter,Electricity:Zone:N405 \- ELECTRIC ROOM_\{13139\},hourly; !- [J]
Output:Meter:Cumulative,Electricity:Zone:N405 \- ELECTRIC ROOM_\{13139\},hourly; !- [J]
Output:Meter,InteriorLights:Electricity:Zone:N405 \- ELECTRIC ROOM_\{13139\},hourly; !- [J]
Output:Meter:Cumulative,InteriorLights:Electricity:Zone:N405 \- ELECTRIC ROOM_\{13139\},hourly; !- [J]
Output:Meter,General:InteriorLights:Electricity:Zone:N405 \- ELECTRIC ROOM_\{13139\},hourly; !- [J]
Output:Meter:Cumulative,General:InteriorLights:Electricity:Zone:N405 \- ELECTRIC ROOM_\{13139\},hourly; !- [J]
Output:Meter,Electricity:Zone:N407 \- AV_\{13132\},hourly; !- [J]
Output:Meter:Cumulative,Electricity:Zone:N407 \- AV_\{13132\},hourly; !- [J]
Output:Meter,InteriorLights:Electricity:Zone:N407 \- AV_\{13132\},hourly; !- [J]
Output:Meter:Cumulative,InteriorLights:Electricity:Zone:N407 \- AV_\{13132\},hourly; !- [J]
Output:Meter,General:InteriorLights:Electricity:Zone:N407 \- AV_\{13132\},hourly; !- [J]
Output:Meter:Cumulative,General:InteriorLights:Electricity:Zone:N407 \- AV_\{13132\},hourly; !- [J]
Output:Meter,Electricity:Zone:N409 \- BREAK ROOM_\{13125\},hourly; !- [J]
Output:Meter:Cumulative,Electricity:Zone:N409 \- BREAK ROOM_\{13125\},hourly; !- [J]
Output:Meter,InteriorLights:Electricity:Zone:N409 \- BREAK ROOM_\{13125\},hourly; !- [J]
Output:Meter:Cumulative,InteriorLights:Electricity:Zone:N409 \- BREAK ROOM_\{13125\},hourly; !- [J]
Output:Meter,General:InteriorLights:Electricity:Zone:N409 \- BREAK ROOM_\{13125\},hourly; !- [J]
Output:Meter:Cumulative,General:InteriorLights:Electricity:Zone:N409 \- BREAK ROOM_\{13125\},hourly; !- [J]
Output:Meter,Electricity:Zone:N410 \- FILES ROOM_\{13118\},hourly; !- [J]
Output:Meter:Cumulative,Electricity:Zone:N410 \- FILES ROOM_\{13118\},hourly; !- [J]
Output:Meter,InteriorLights:Electricity:Zone:N410 \- FILES ROOM_\{13118\},hourly; !- [J]
Output:Meter:Cumulative,InteriorLights:Electricity:Zone:N410 \- FILES ROOM_\{13118\},hourly; !- [J]
Output:Meter,General:InteriorLights:Electricity:Zone:N410 \- FILES ROOM_\{13118\},hourly; !- [J]
Output:Meter:Cumulative,General:InteriorLights:Electricity:Zone:N410 \- FILES ROOM_\{13118\},hourly; !- [J]
Output:Meter,Electricity:Zone:N412 \- STORAGE_\{13111\},hourly; !- [J]
Output:Meter:Cumulative,Electricity:Zone:N412 \- STORAGE_\{13111\},hourly; !- [J]
Output:Meter,InteriorLights:Electricity:Zone:N412 \- STORAGE_\{13111\},hourly; !- [J]
Output:Meter:Cumulative,InteriorLights:Electricity:Zone:N412 \- STORAGE_\{13111\},hourly; !- [J]
Output:Meter,General:InteriorLights:Electricity:Zone:N412 \- STORAGE_\{13111\},hourly; !- [J]
Output:Meter:Cumulative,General:InteriorLights:Electricity:Zone:N412 \- STORAGE_\{13111\},hourly; !- [J]
Output:Meter,Electricity:Zone:N414 WEST END \- OPEN OFFICE_\{13104\},hourly; !- [J]
Output:Meter:Cumulative,Electricity:Zone:N414 WEST END \- OPEN OFFICE_\{13104\},hourly; !- [J]
Output:Meter,InteriorLights:Electricity:Zone:N414 WEST END \- OPEN OFFICE_\{13104\},hourly; !- [J]
Output:Meter:Cumulative,InteriorLights:Electricity:Zone:N414 WEST END \- OPEN OFFICE_\{13104\},hourly; !- [J]
Output:Meter,General:InteriorLights:Electricity:Zone:N414 WEST END \- OPEN OFFICE_\{13104\},hourly; !- [J]
Output:Meter:Cumulative,General:InteriorLights:Electricity:Zone:N414 WEST END \- OPEN OFFICE_\{13104\},hourly; !- [J]
Output:Meter,Electricity:Zone:N414A INTERIOR \- OPEN OFFICE_\{13097\},hourly; !- [J]
Output:Meter:Cumulative,Electricity:Zone:N414A INTERIOR \- OPEN OFFICE_\{13097\},hourly; !- [J]
Output:Meter,InteriorLights:Electricity:Zone:N414A INTERIOR \- OPEN OFFICE_\{13097\},hourly; !- [J]
Output:Meter:Cumulative,InteriorLights:Electricity:Zone:N414A INTERIOR \- OPEN OFFICE_\{13097\},hourly; !- [J]
Output:Meter,General:InteriorLights:Electricity:Zone:N414A INTERIOR \- OPEN OFFICE_\{13097\},hourly; !- [J]
Output:Meter:Cumulative,General:InteriorLights:Electricity:Zone:N414A INTERIOR \- OPEN OFFICE_\{13097\},hourly; !- [J]
Output:Meter,Electricity:Zone:N414A PERIMETER \- OPEN OFFICE_\{13090\},hourly; !- [J]
Output:Meter:Cumulative,Electricity:Zone:N414A PERIMETER \- OPEN OFFICE_\{13090\},hourly; !- [J]
Output:Meter,InteriorLights:Electricity:Zone:N414A PERIMETER \- OPEN OFFICE_\{13090\},hourly; !- [J]
Output:Meter:Cumulative,InteriorLights:Electricity:Zone:N414A PERIMETER \- OPEN OFFICE_\{13090\},hourly; !- [J]
Output:Meter,General:InteriorLights:Electricity:Zone:N414A PERIMETER \- OPEN OFFICE_\{13090\},hourly; !- [J]
Output:Meter:Cumulative,General:InteriorLights:Electricity:Zone:N414A PERIMETER \- OPEN OFFICE_\{13090\},hourly; !- [J]
Output:Meter,Electricity:Zone:N414B INTERIOR \- OPEN OFFICE_\{13083\},hourly; !- [J]
Output:Meter:Cumulative,Electricity:Zone:N414B INTERIOR \- OPEN OFFICE_\{13083\},hourly; !- [J]
Output:Meter,InteriorLights:Electricity:Zone:N414B INTERIOR \- OPEN OFFICE_\{13083\},hourly; !- [J]
Output:Meter:Cumulative,InteriorLights:Electricity:Zone:N414B INTERIOR \- OPEN OFFICE_\{13083\},hourly; !- [J]
Output:Meter,General:InteriorLights:Electricity:Zone:N414B INTERIOR \- OPEN OFFICE_\{13083\},hourly; !- [J]
Output:Meter:Cumulative,General:InteriorLights:Electricity:Zone:N414B INTERIOR \- OPEN OFFICE_\{13083\},hourly; !- [J]
Output:Meter,Electricity:Zone:N414B PERIMETER \- OPEN OFFICE_\{13076\},hourly; !- [J]
Output:Meter:Cumulative,Electricity:Zone:N414B PERIMETER \- OPEN OFFICE_\{13076\},hourly; !- [J]
Output:Meter,InteriorLights:Electricity:Zone:N414B PERIMETER \- OPEN OFFICE_\{13076\},hourly; !- [J]
Output:Meter:Cumulative,InteriorLights:Electricity:Zone:N414B PERIMETER \- OPEN OFFICE_\{13076\},hourly; !- [J]
Output:Meter,General:InteriorLights:Electricity:Zone:N414B PERIMETER \- OPEN OFFICE_\{13076\},hourly; !- [J]
Output:Meter:Cumulative,General:InteriorLights:Electricity:Zone:N414B PERIMETER \- OPEN OFFICE_\{13076\},hourly; !- [J]
Output:Meter,Electricity:Zone:N415 \- COPY ROOM_\{13069\},hourly; !- [J]
Output:Meter:Cumulative,Electricity:Zone:N415 \- COPY ROOM_\{13069\},hourly; !- [J]
Output:Meter,InteriorLights:Electricity:Zone:N415 \- COPY ROOM_\{13069\},hourly; !- [J]
Output:Meter:Cumulative,InteriorLights:Electricity:Zone:N415 \- COPY ROOM_\{13069\},hourly; !- [J]
Output:Meter,General:InteriorLights:Electricity:Zone:N415 \- COPY ROOM_\{13069\},hourly; !- [J]
Output:Meter:Cumulative,General:InteriorLights:Electricity:Zone:N415 \- COPY ROOM_\{13069\},hourly; !- [J]
Output:Meter,Electricity:Zone:N416 \- MECHANICAL_\{13062\},hourly; !- [J]
Output:Meter:Cumulative,Electricity:Zone:N416 \- MECHANICAL_\{13062\},hourly; !- [J]
Output:Meter,InteriorLights:Electricity:Zone:N416 \- MECHANICAL_\{13062\},hourly; !- [J]
Output:Meter:Cumulative,InteriorLights:Electricity:Zone:N416 \- MECHANICAL_\{13062\},hourly; !- [J]
Output:Meter,General:InteriorLights:Electricity:Zone:N416 \- MECHANICAL_\{13062\},hourly; !- [J]
Output:Meter:Cumulative,General:InteriorLights:Electricity:Zone:N416 \- MECHANICAL_\{13062\},hourly; !- [J]
Output:Meter,Electricity:Zone:N417 \- OFFICE_\{13055\},hourly; !- [J]
Output:Meter:Cumulative,Electricity:Zone:N417 \- OFFICE_\{13055\},hourly; !- [J]
Output:Meter,InteriorLights:Electricity:Zone:N417 \- OFFICE_\{13055\},hourly; !- [J]
Output:Meter:Cumulative,InteriorLights:Electricity:Zone:N417 \- OFFICE_\{13055\},hourly; !- [J]
Output:Meter,General:InteriorLights:Electricity:Zone:N417 \- OFFICE_\{13055\},hourly; !- [J]
Output:Meter:Cumulative,General:InteriorLights:Electricity:Zone:N417 \- OFFICE_\{13055\},hourly; !- [J]
Output:Meter,Electricity:Zone:N418 \- OFFICE_\{13048\},hourly; !- [J]
Output:Meter:Cumulative,Electricity:Zone:N418 \- OFFICE_\{13048\},hourly; !- [J]
Output:Meter,InteriorLights:Electricity:Zone:N418 \- OFFICE_\{13048\},hourly; !- [J]
Output:Meter:Cumulative,InteriorLights:Electricity:Zone:N418 \- OFFICE_\{13048\},hourly; !- [J]
Output:Meter,General:InteriorLights:Electricity:Zone:N418 \- OFFICE_\{13048\},hourly; !- [J]
Output:Meter:Cumulative,General:InteriorLights:Electricity:Zone:N418 \- OFFICE_\{13048\},hourly; !- [J]
Output:Meter,Electricity:Zone:N419 \- OFFICE_\{13041\},hourly; !- [J]
Output:Meter:Cumulative,Electricity:Zone:N419 \- OFFICE_\{13041\},hourly; !- [J]
Output:Meter,InteriorLights:Electricity:Zone:N419 \- OFFICE_\{13041\},hourly; !- [J]
Output:Meter:Cumulative,InteriorLights:Electricity:Zone:N419 \- OFFICE_\{13041\},hourly; !- [J]
Output:Meter,General:InteriorLights:Electricity:Zone:N419 \- OFFICE_\{13041\},hourly; !- [J]
Output:Meter:Cumulative,General:InteriorLights:Electricity:Zone:N419 \- OFFICE_\{13041\},hourly; !- [J]
Output:Meter,Electricity:Zone:N423 \- OFFICE_\{13034\},hourly; !- [J]
Output:Meter:Cumulative,Electricity:Zone:N423 \- OFFICE_\{13034\},hourly; !- [J]
Output:Meter,InteriorLights:Electricity:Zone:N423 \- OFFICE_\{13034\},hourly; !- [J]
Output:Meter:Cumulative,InteriorLights:Electricity:Zone:N423 \- OFFICE_\{13034\},hourly; !- [J]
Output:Meter,General:InteriorLights:Electricity:Zone:N423 \- OFFICE_\{13034\},hourly; !- [J]
Output:Meter:Cumulative,General:InteriorLights:Electricity:Zone:N423 \- OFFICE_\{13034\},hourly; !- [J]
Output:Meter,Electricity:Zone:N424 \- OFFICE_\{13027\},hourly; !- [J]
Output:Meter:Cumulative,Electricity:Zone:N424 \- OFFICE_\{13027\},hourly; !- [J]
Output:Meter,InteriorLights:Electricity:Zone:N424 \- OFFICE_\{13027\},hourly; !- [J]
Output:Meter:Cumulative,InteriorLights:Electricity:Zone:N424 \- OFFICE_\{13027\},hourly; !- [J]
Output:Meter,General:InteriorLights:Electricity:Zone:N424 \- OFFICE_\{13027\},hourly; !- [J]
Output:Meter:Cumulative,General:InteriorLights:Electricity:Zone:N424 \- OFFICE_\{13027\},hourly; !- [J]
Output:Meter,Electricity:Zone:N425 \- EXECUTIVE OFFICE_\{13020\},hourly; !- [J]
Output:Meter:Cumulative,Electricity:Zone:N425 \- EXECUTIVE OFFICE_\{13020\},hourly; !- [J]
Output:Meter,InteriorLights:Electricity:Zone:N425 \- EXECUTIVE OFFICE_\{13020\},hourly; !- [J]
Output:Meter:Cumulative,InteriorLights:Electricity:Zone:N425 \- EXECUTIVE OFFICE_\{13020\},hourly; !- [J]
Output:Meter,General:InteriorLights:Electricity:Zone:N425 \- EXECUTIVE OFFICE_\{13020\},hourly; !- [J]
Output:Meter:Cumulative,General:InteriorLights:Electricity:Zone:N425 \- EXECUTIVE OFFICE_\{13020\},hourly; !- [J]
Output:Meter,Electricity:Zone:N426 \- OPEN OFFICE_\{13013\},hourly; !- [J]
Output:Meter:Cumulative,Electricity:Zone:N426 \- OPEN OFFICE_\{13013\},hourly; !- [J]
Output:Meter,InteriorLights:Electricity:Zone:N426 \- OPEN OFFICE_\{13013\},hourly; !- [J]
Output:Meter:Cumulative,InteriorLights:Electricity:Zone:N426 \- OPEN OFFICE_\{13013\},hourly; !- [J]
Output:Meter,General:InteriorLights:Electricity:Zone:N426 \- OPEN OFFICE_\{13013\},hourly; !- [J]
Output:Meter:Cumulative,General:InteriorLights:Electricity:Zone:N426 \- OPEN OFFICE_\{13013\},hourly; !- [J]
Output:Meter,Electricity:Zone:N427 \- EXECUTIVE OFFICE_\{13006\},hourly; !- [J]
Output:Meter:Cumulative,Electricity:Zone:N427 \- EXECUTIVE OFFICE_\{13006\},hourly; !- [J]
Output:Meter,InteriorLights:Electricity:Zone:N427 \- EXECUTIVE OFFICE_\{13006\},hourly; !- [J]
Output:Meter:Cumulative,InteriorLights:Electricity:Zone:N427 \- EXECUTIVE OFFICE_\{13006\},hourly; !- [J]
Output:Meter,General:InteriorLights:Electricity:Zone:N427 \- EXECUTIVE OFFICE_\{13006\},hourly; !- [J]
Output:Meter:Cumulative,General:InteriorLights:Electricity:Zone:N427 \- EXECUTIVE OFFICE_\{13006\},hourly; !- [J]
Output:Meter,Electricity:Zone:N428 \- EXECUTIVE OFFICE_\{12999\},hourly; !- [J]
Output:Meter:Cumulative,Electricity:Zone:N428 \- EXECUTIVE OFFICE_\{12999\},hourly; !- [J]
Output:Meter,InteriorLights:Electricity:Zone:N428 \- EXECUTIVE OFFICE_\{12999\},hourly; !- [J]
Output:Meter:Cumulative,InteriorLights:Electricity:Zone:N428 \- EXECUTIVE OFFICE_\{12999\},hourly; !- [J]
Output:Meter,General:InteriorLights:Electricity:Zone:N428 \- EXECUTIVE OFFICE_\{12999\},hourly; !- [J]
Output:Meter:Cumulative,General:InteriorLights:Electricity:Zone:N428 \- EXECUTIVE OFFICE_\{12999\},hourly; !- [J]
Output:Meter,Electricity:Zone:N429 \- OFFICE_\{12992\},hourly; !- [J]
Output:Meter:Cumulative,Electricity:Zone:N429 \- OFFICE_\{12992\},hourly; !- [J]
Output:Meter,InteriorLights:Electricity:Zone:N429 \- OFFICE_\{12992\},hourly; !- [J]
Output:Meter:Cumulative,InteriorLights:Electricity:Zone:N429 \- OFFICE_\{12992\},hourly; !- [J]
Output:Meter,General:InteriorLights:Electricity:Zone:N429 \- OFFICE_\{12992\},hourly; !- [J]
Output:Meter:Cumulative,General:InteriorLights:Electricity:Zone:N429 \- OFFICE_\{12992\},hourly; !- [J]
Output:Meter,Electricity:Zone:N430 \- OFFICE_\{12985\},hourly; !- [J]
Output:Meter:Cumulative,Electricity:Zone:N430 \- OFFICE_\{12985\},hourly; !- [J]
Output:Meter,InteriorLights:Electricity:Zone:N430 \- OFFICE_\{12985\},hourly; !- [J]
Output:Meter:Cumulative,InteriorLights:Electricity:Zone:N430 \- OFFICE_\{12985\},hourly; !- [J]
Output:Meter,General:InteriorLights:Electricity:Zone:N430 \- OFFICE_\{12985\},hourly; !- [J]
Output:Meter:Cumulative,General:InteriorLights:Electricity:Zone:N430 \- OFFICE_\{12985\},hourly; !- [J]
Output:Meter,Electricity:Zone:N431 \- OFFICE_\{12978\},hourly; !- [J]
Output:Meter:Cumulative,Electricity:Zone:N431 \- OFFICE_\{12978\},hourly; !- [J]
Output:Meter,InteriorLights:Electricity:Zone:N431 \- OFFICE_\{12978\},hourly; !- [J]
Output:Meter:Cumulative,InteriorLights:Electricity:Zone:N431 \- OFFICE_\{12978\},hourly; !- [J]
Output:Meter,General:InteriorLights:Electricity:Zone:N431 \- OFFICE_\{12978\},hourly; !- [J]
Output:Meter:Cumulative,General:InteriorLights:Electricity:Zone:N431 \- OFFICE_\{12978\},hourly; !- [J]
Output:Meter,Electricity:Zone:N432 \- OFFICE_\{12971\},hourly; !- [J]
Output:Meter:Cumulative,Electricity:Zone:N432 \- OFFICE_\{12971\},hourly; !- [J]
Output:Meter,InteriorLights:Electricity:Zone:N432 \- OFFICE_\{12971\},hourly; !- [J]
Output:Meter:Cumulative,InteriorLights:Electricity:Zone:N432 \- OFFICE_\{12971\},hourly; !- [J]
Output:Meter,General:InteriorLights:Electricity:Zone:N432 \- OFFICE_\{12971\},hourly; !- [J]
Output:Meter:Cumulative,General:InteriorLights:Electricity:Zone:N432 \- OFFICE_\{12971\},hourly; !- [J]
Output:Meter,Electricity:Zone:N433 \- EXECUTIVE OFFICE_\{12964\},hourly; !- [J]
Output:Meter:Cumulative,Electricity:Zone:N433 \- EXECUTIVE OFFICE_\{12964\},hourly; !- [J]
Output:Meter,InteriorLights:Electricity:Zone:N433 \- EXECUTIVE OFFICE_\{12964\},hourly; !- [J]
Output:Meter:Cumulative,InteriorLights:Electricity:Zone:N433 \- EXECUTIVE OFFICE_\{12964\},hourly; !- [J]
Output:Meter,General:InteriorLights:Electricity:Zone:N433 \- EXECUTIVE OFFICE_\{12964\},hourly; !- [J]
Output:Meter:Cumulative,General:InteriorLights:Electricity:Zone:N433 \- EXECUTIVE OFFICE_\{12964\},hourly; !- [J]
Output:Meter,Electricity:Zone:N434 \- OPEN OFFICE_\{12957\},hourly; !- [J]
Output:Meter:Cumulative,Electricity:Zone:N434 \- OPEN OFFICE_\{12957\},hourly; !- [J]
Output:Meter,InteriorLights:Electricity:Zone:N434 \- OPEN OFFICE_\{12957\},hourly; !- [J]
Output:Meter:Cumulative,InteriorLights:Electricity:Zone:N434 \- OPEN OFFICE_\{12957\},hourly; !- [J]
Output:Meter,General:InteriorLights:Electricity:Zone:N434 \- OPEN OFFICE_\{12957\},hourly; !- [J]
Output:Meter:Cumulative,General:InteriorLights:Electricity:Zone:N434 \- OPEN OFFICE_\{12957\},hourly; !- [J]
Output:Meter,Electricity:Zone:N435 \- EXECUTIVE OFFICE_\{12950\},hourly; !- [J]
Output:Meter:Cumulative,Electricity:Zone:N435 \- EXECUTIVE OFFICE_\{12950\},hourly; !- [J]
Output:Meter,InteriorLights:Electricity:Zone:N435 \- EXECUTIVE OFFICE_\{12950\},hourly; !- [J]
Output:Meter:Cumulative,InteriorLights:Electricity:Zone:N435 \- EXECUTIVE OFFICE_\{12950\},hourly; !- [J]
Output:Meter,General:InteriorLights:Electricity:Zone:N435 \- EXECUTIVE OFFICE_\{12950\},hourly; !- [J]
Output:Meter:Cumulative,General:InteriorLights:Electricity:Zone:N435 \- EXECUTIVE OFFICE_\{12950\},hourly; !- [J]
Output:Meter,Electricity:Zone:N437 \- OFFICE_\{12943\},hourly; !- [J]
Output:Meter:Cumulative,Electricity:Zone:N437 \- OFFICE_\{12943\},hourly; !- [J]
Output:Meter,InteriorLights:Electricity:Zone:N437 \- OFFICE_\{12943\},hourly; !- [J]
Output:Meter:Cumulative,InteriorLights:Electricity:Zone:N437 \- OFFICE_\{12943\},hourly; !- [J]
Output:Meter,General:InteriorLights:Electricity:Zone:N437 \- OFFICE_\{12943\},hourly; !- [J]
Output:Meter:Cumulative,General:InteriorLights:Electricity:Zone:N437 \- OFFICE_\{12943\},hourly; !- [J]
Output:Meter,Electricity:Zone:N438 \- HUDDLE_\{12936\},hourly; !- [J]
Output:Meter:Cumulative,Electricity:Zone:N438 \- HUDDLE_\{12936\},hourly; !- [J]
Output:Meter,InteriorLights:Electricity:Zone:N438 \- HUDDLE_\{12936\},hourly; !- [J]
Output:Meter:Cumulative,InteriorLights:Electricity:Zone:N438 \- HUDDLE_\{12936\},hourly; !- [J]
Output:Meter,General:InteriorLights:Electricity:Zone:N438 \- HUDDLE_\{12936\},hourly; !- [J]
Output:Meter:Cumulative,General:InteriorLights:Electricity:Zone:N438 \- HUDDLE_\{12936\},hourly; !- [J]
Output:Meter,Electricity:Zone:N440 \- BOOTH_\{12929\},hourly; !- [J]
Output:Meter:Cumulative,Electricity:Zone:N440 \- BOOTH_\{12929\},hourly; !- [J]
Output:Meter,InteriorLights:Electricity:Zone:N440 \- BOOTH_\{12929\},hourly; !- [J]
Output:Meter:Cumulative,InteriorLights:Electricity:Zone:N440 \- BOOTH_\{12929\},hourly; !- [J]
Output:Meter,General:InteriorLights:Electricity:Zone:N440 \- BOOTH_\{12929\},hourly; !- [J]
Output:Meter:Cumulative,General:InteriorLights:Electricity:Zone:N440 \- BOOTH_\{12929\},hourly; !- [J]
Output:Meter,Electricity:Zone:N441 \- OFFICE_\{12922\},hourly; !- [J]
Output:Meter:Cumulative,Electricity:Zone:N441 \- OFFICE_\{12922\},hourly; !- [J]
Output:Meter,InteriorLights:Electricity:Zone:N441 \- OFFICE_\{12922\},hourly; !- [J]
Output:Meter:Cumulative,InteriorLights:Electricity:Zone:N441 \- OFFICE_\{12922\},hourly; !- [J]
Output:Meter,General:InteriorLights:Electricity:Zone:N441 \- OFFICE_\{12922\},hourly; !- [J]
Output:Meter:Cumulative,General:InteriorLights:Electricity:Zone:N441 \- OFFICE_\{12922\},hourly; !- [J]
Output:Meter,Electricity:Zone:N442 \- OFFICE_\{12915\},hourly; !- [J]
Output:Meter:Cumulative,Electricity:Zone:N442 \- OFFICE_\{12915\},hourly; !- [J]
Output:Meter,InteriorLights:Electricity:Zone:N442 \- OFFICE_\{12915\},hourly; !- [J]
Output:Meter:Cumulative,InteriorLights:Electricity:Zone:N442 \- OFFICE_\{12915\},hourly; !- [J]
Output:Meter,General:InteriorLights:Electricity:Zone:N442 \- OFFICE_\{12915\},hourly; !- [J]
Output:Meter:Cumulative,General:InteriorLights:Electricity:Zone:N442 \- OFFICE_\{12915\},hourly; !- [J]
Output:Meter,Electricity:Zone:N443 \- OFFICE_\{12908\},hourly; !- [J]
Output:Meter:Cumulative,Electricity:Zone:N443 \- OFFICE_\{12908\},hourly; !- [J]
Output:Meter,InteriorLights:Electricity:Zone:N443 \- OFFICE_\{12908\},hourly; !- [J]
Output:Meter:Cumulative,InteriorLights:Electricity:Zone:N443 \- OFFICE_\{12908\},hourly; !- [J]
Output:Meter,General:InteriorLights:Electricity:Zone:N443 \- OFFICE_\{12908\},hourly; !- [J]
Output:Meter:Cumulative,General:InteriorLights:Electricity:Zone:N443 \- OFFICE_\{12908\},hourly; !- [J]
Output:Meter,Electricity:Zone:N444 \- OFFICE_\{12901\},hourly; !- [J]
Output:Meter:Cumulative,Electricity:Zone:N444 \- OFFICE_\{12901\},hourly; !- [J]
Output:Meter,InteriorLights:Electricity:Zone:N444 \- OFFICE_\{12901\},hourly; !- [J]
Output:Meter:Cumulative,InteriorLights:Electricity:Zone:N444 \- OFFICE_\{12901\},hourly; !- [J]
Output:Meter,General:InteriorLights:Electricity:Zone:N444 \- OFFICE_\{12901\},hourly; !- [J]
Output:Meter:Cumulative,General:InteriorLights:Electricity:Zone:N444 \- OFFICE_\{12901\},hourly; !- [J]
Output:Meter,Electricity:Zone:N445 \- OFFICE_\{12894\},hourly; !- [J]
Output:Meter:Cumulative,Electricity:Zone:N445 \- OFFICE_\{12894\},hourly; !- [J]
Output:Meter,InteriorLights:Electricity:Zone:N445 \- OFFICE_\{12894\},hourly; !- [J]
Output:Meter:Cumulative,InteriorLights:Electricity:Zone:N445 \- OFFICE_\{12894\},hourly; !- [J]
Output:Meter,General:InteriorLights:Electricity:Zone:N445 \- OFFICE_\{12894\},hourly; !- [J]
Output:Meter:Cumulative,General:InteriorLights:Electricity:Zone:N445 \- OFFICE_\{12894\},hourly; !- [J]
Output:Meter,Electricity:Zone:N446 \- OFFICE_\{12887\},hourly; !- [J]
Output:Meter:Cumulative,Electricity:Zone:N446 \- OFFICE_\{12887\},hourly; !- [J]
Output:Meter,InteriorLights:Electricity:Zone:N446 \- OFFICE_\{12887\},hourly; !- [J]
Output:Meter:Cumulative,InteriorLights:Electricity:Zone:N446 \- OFFICE_\{12887\},hourly; !- [J]
Output:Meter,General:InteriorLights:Electricity:Zone:N446 \- OFFICE_\{12887\},hourly; !- [J]
Output:Meter:Cumulative,General:InteriorLights:Electricity:Zone:N446 \- OFFICE_\{12887\},hourly; !- [J]
Output:Meter,Electricity:Zone:N489 \- ELEVATOR 5_\{12880\},hourly; !- [J]
Output:Meter:Cumulative,Electricity:Zone:N489 \- ELEVATOR 5_\{12880\},hourly; !- [J]
Output:Meter,InteriorLights:Electricity:Zone:N489 \- ELEVATOR 5_\{12880\},hourly; !- [J]
Output:Meter:Cumulative,InteriorLights:Electricity:Zone:N489 \- ELEVATOR 5_\{12880\},hourly; !- [J]
Output:Meter,General:InteriorLights:Electricity:Zone:N489 \- ELEVATOR 5_\{12880\},hourly; !- [J]
Output:Meter:Cumulative,General:InteriorLights:Electricity:Zone:N489 \- ELEVATOR 5_\{12880\},hourly; !- [J]
Output:Meter,Electricity:Zone:N498 \- STAIR 5_\{12873\},hourly; !- [J]
Output:Meter:Cumulative,Electricity:Zone:N498 \- STAIR 5_\{12873\},hourly; !- [J]
Output:Meter,InteriorLights:Electricity:Zone:N498 \- STAIR 5_\{12873\},hourly; !- [J]
Output:Meter:Cumulative,InteriorLights:Electricity:Zone:N498 \- STAIR 5_\{12873\},hourly; !- [J]
Output:Meter,General:InteriorLights:Electricity:Zone:N498 \- STAIR 5_\{12873\},hourly; !- [J]
Output:Meter:Cumulative,General:InteriorLights:Electricity:Zone:N498 \- STAIR 5_\{12873\},hourly; !- [J]
Output:Meter,Electricity:Zone:N499 \- STAIR 6_\{12866\},hourly; !- [J]
Output:Meter:Cumulative,Electricity:Zone:N499 \- STAIR 6_\{12866\},hourly; !- [J]
Output:Meter,InteriorLights:Electricity:Zone:N499 \- STAIR 6_\{12866\},hourly; !- [J]
Output:Meter:Cumulative,InteriorLights:Electricity:Zone:N499 \- STAIR 6_\{12866\},hourly; !- [J]
Output:Meter,General:InteriorLights:Electricity:Zone:N499 \- STAIR 6_\{12866\},hourly; !- [J]
Output:Meter:Cumulative,General:InteriorLights:Electricity:Zone:N499 \- STAIR 6_\{12866\},hourly; !- [J]
Output:Meter,Electricity:Zone:N500 \- UNCONDITIONED SPACE_\{12859\},hourly; !- [J]
Output:Meter:Cumulative,Electricity:Zone:N500 \- UNCONDITIONED SPACE_\{12859\},hourly; !- [J]
Output:Meter,InteriorLights:Electricity:Zone:N500 \- UNCONDITIONED SPACE_\{12859\},hourly; !- [J]
Output:Meter:Cumulative,InteriorLights:Electricity:Zone:N500 \- UNCONDITIONED SPACE_\{12859\},hourly; !- [J]
Output:Meter,General:InteriorLights:Electricity:Zone:N500 \- UNCONDITIONED SPACE_\{12859\},hourly; !- [J]
Output:Meter:Cumulative,General:InteriorLights:Electricity:Zone:N500 \- UNCONDITIONED SPACE_\{12859\},hourly; !- [J]
Output:Meter,Electricity:Zone:N500A \- JANITOR_\{12852\},hourly; !- [J]
Output:Meter:Cumulative,Electricity:Zone:N500A \- JANITOR_\{12852\},hourly; !- [J]
Output:Meter,InteriorLights:Electricity:Zone:N500A \- JANITOR_\{12852\},hourly; !- [J]
Output:Meter:Cumulative,InteriorLights:Electricity:Zone:N500A \- JANITOR_\{12852\},hourly; !- [J]
Output:Meter,General:InteriorLights:Electricity:Zone:N500A \- JANITOR_\{12852\},hourly; !- [J]
Output:Meter:Cumulative,General:InteriorLights:Electricity:Zone:N500A \- JANITOR_\{12852\},hourly; !- [J]
Output:Meter,Electricity:Zone:N501 \- CORRIDOR_\{12845\},hourly; !- [J]
Output:Meter:Cumulative,Electricity:Zone:N501 \- CORRIDOR_\{12845\},hourly; !- [J]
Output:Meter,InteriorLights:Electricity:Zone:N501 \- CORRIDOR_\{12845\},hourly; !- [J]
Output:Meter:Cumulative,InteriorLights:Electricity:Zone:N501 \- CORRIDOR_\{12845\},hourly; !- [J]
Output:Meter,General:InteriorLights:Electricity:Zone:N501 \- CORRIDOR_\{12845\},hourly; !- [J]
Output:Meter:Cumulative,General:InteriorLights:Electricity:Zone:N501 \- CORRIDOR_\{12845\},hourly; !- [J]
Output:Meter,Electricity:Zone:N503 \- WOMEN\'S RESTROOM_\{12838\},hourly; !- [J]
Output:Meter:Cumulative,Electricity:Zone:N503 \- WOMEN\'S RESTROOM_\{12838\},hourly; !- [J]
Output:Meter,InteriorLights:Electricity:Zone:N503 \- WOMEN\'S RESTROOM_\{12838\},hourly; !- [J]
Output:Meter:Cumulative,InteriorLights:Electricity:Zone:N503 \- WOMEN\'S RESTROOM_\{12838\},hourly; !- [J]
Output:Meter,General:InteriorLights:Electricity:Zone:N503 \- WOMEN\'S RESTROOM_\{12838\},hourly; !- [J]
Output:Meter:Cumulative,General:InteriorLights:Electricity:Zone:N503 \- WOMEN\'S RESTROOM_\{12838\},hourly; !- [J]
Output:Meter,Electricity:Zone:N504 \- MEN\'S RESTROOM_\{12831\},hourly; !- [J]
Output:Meter:Cumulative,Electricity:Zone:N504 \- MEN\'S RESTROOM_\{12831\},hourly; !- [J]
Output:Meter,InteriorLights:Electricity:Zone:N504 \- MEN\'S RESTROOM_\{12831\},hourly; !- [J]
Output:Meter:Cumulative,InteriorLights:Electricity:Zone:N504 \- MEN\'S RESTROOM_\{12831\},hourly; !- [J]
Output:Meter,General:InteriorLights:Electricity:Zone:N504 \- MEN\'S RESTROOM_\{12831\},hourly; !- [J]
Output:Meter:Cumulative,General:InteriorLights:Electricity:Zone:N504 \- MEN\'S RESTROOM_\{12831\},hourly; !- [J]
[...]
Output:Meter:Cumulative,General:Heating:EnergyTransfer:Zone:S541 \- OFFICE_\{11326\},hourly; !- [J]
Output:Meter,Cooling:EnergyTransfer:Zone:S541 \- OFFICE_\{11326\},hourly; !- [J]
Output:Meter:Cumulative,Cooling:EnergyTransfer:Zone:S541 \- OFFICE_\{11326\},hourly; !- [J]
Output:Meter,General:Cooling:EnergyTransfer:Zone:S541 \- OFFICE_\{11326\},hourly; !- [J]
Output:Meter:Cumulative,General:Cooling:EnergyTransfer:Zone:S541 \- OFFICE_\{11326\},hourly; !- [J]
Output:Meter,EnergyTransfer:Zone:S544 \- EXECUTIVE OFFICE_\{11319\},hourly; !- [J]
Output:Meter:Cumulative,EnergyTransfer:Zone:S544 \- EXECUTIVE OFFICE_\{11319\},hourly; !- [J]
Output:Meter,Heating:EnergyTransfer:Zone:S544 \- EXECUTIVE OFFICE_\{11319\},hourly; !- [J]
Output:Meter:Cumulative,Heating:EnergyTransfer:Zone:S544 \- EXECUTIVE OFFICE_\{11319\},hourly; !- [J]
Output:Meter,General:Heating:EnergyTransfer:Zone:S544 \- EXECUTIVE OFFICE_\{11319\},hourly; !- [J]
Output:Meter:Cumulative,General:Heating:EnergyTransfer:Zone:S544 \- EXECUTIVE OFFICE_\{11319\},hourly; !- [J]
Output:Meter,Cooling:EnergyTransfer:Zone:S544 \- EXECUTIVE OFFICE_\{11319\},hourly; !- [J]
Output:Meter:Cumulative,Cooling:EnergyTransfer:Zone:S544 \- EXECUTIVE OFFICE_\{11319\},hourly; !- [J]
Output:Meter,General:Cooling:EnergyTransfer:Zone:S544 \- EXECUTIVE OFFICE_\{11319\},hourly; !- [J]
Output:Meter:Cumulative,General:Cooling:EnergyTransfer:Zone:S544 \- EXECUTIVE OFFICE_\{11319\},hourly; !- [J]
Output:Meter,EnergyTransfer:Zone:S545 \- EXECUTIVE OFFICE_\{11312\},hourly; !- [J]
Output:Meter:Cumulative,EnergyTransfer:Zone:S545 \- EXECUTIVE OFFICE_\{11312\},hourly; !- [J]
Output:Meter,Heating:EnergyTransfer:Zone:S545 \- EXECUTIVE OFFICE_\{11312\},hourly; !- [J]
Output:Meter:Cumulative,Heating:EnergyTransfer:Zone:S545 \- EXECUTIVE OFFICE_\{11312\},hourly; !- [J]
Output:Meter,General:Heating:EnergyTransfer:Zone:S545 \- EXECUTIVE OFFICE_\{11312\},hourly; !- [J]
Output:Meter:Cumulative,General:Heating:EnergyTransfer:Zone:S545 \- EXECUTIVE OFFICE_\{11312\},hourly; !- [J]
Output:Meter,Cooling:EnergyTransfer:Zone:S545 \- EXECUTIVE OFFICE_\{11312\},hourly; !- [J]
Output:Meter:Cumulative,Cooling:EnergyTransfer:Zone:S545 \- EXECUTIVE OFFICE_\{11312\},hourly; !- [J]
Output:Meter,General:Cooling:EnergyTransfer:Zone:S545 \- EXECUTIVE OFFICE_\{11312\},hourly; !- [J]
Output:Meter:Cumulative,General:Cooling:EnergyTransfer:Zone:S545 \- EXECUTIVE OFFICE_\{11312\},hourly; !- [J]
Output:Meter,EnergyTransfer:Zone:S546 INTERIOR \- OPEN OFFICE_\{11305\},hourly; !- [J]
Output:Meter:Cumulative,EnergyTransfer:Zone:S546 INTERIOR \- OPEN OFFICE_\{11305\},hourly; !- [J]
Output:Meter,Heating:EnergyTransfer:Zone:S546 INTERIOR \- OPEN OFFICE_\{11305\},hourly; !- [J]
Output:Meter:Cumulative,Heating:EnergyTransfer:Zone:S546 INTERIOR \- OPEN OFFICE_\{11305\},hourly; !- [J]
Output:Meter,General:Heating:EnergyTransfer:Zone:S546 INTERIOR \- OPEN OFFICE_\{11305\},hourly; !- [J]
Output:Meter:Cumulative,General:Heating:EnergyTransfer:Zone:S546 INTERIOR \- OPEN OFFICE_\{11305\},hourly; !- [J]
Output:Meter,Cooling:EnergyTransfer:Zone:S546 INTERIOR \- OPEN OFFICE_\{11305\},hourly; !- [J]
Output:Meter:Cumulative,Cooling:EnergyTransfer:Zone:S546 INTERIOR \- OPEN OFFICE_\{11305\},hourly; !- [J]
Output:Meter,General:Cooling:EnergyTransfer:Zone:S546 INTERIOR \- OPEN OFFICE_\{11305\},hourly; !- [J]
Output:Meter:Cumulative,General:Cooling:EnergyTransfer:Zone:S546 INTERIOR \- OPEN OFFICE_\{11305\},hourly; !- [J]
Output:Meter,EnergyTransfer:Zone:S546 PERIMETER \- OPEN OFFICE_\{11298\},hourly; !- [J]
Output:Meter:Cumulative,EnergyTransfer:Zone:S546 PERIMETER \- OPEN OFFICE_\{11298\},hourly; !- [J]
Output:Meter,Heating:EnergyTransfer:Zone:S546 PERIMETER \- OPEN OFFICE_\{11298\},hourly; !- [J]
Output:Meter:Cumulative,Heating:EnergyTransfer:Zone:S546 PERIMETER \- OPEN OFFICE_\{11298\},hourly; !- [J]
Output:Meter,General:Heating:EnergyTransfer:Zone:S546 PERIMETER \- OPEN OFFICE_\{11298\},hourly; !- [J]
Output:Meter:Cumulative,General:Heating:EnergyTransfer:Zone:S546 PERIMETER \- OPEN OFFICE_\{11298\},hourly; !- [J]
Output:Meter,Cooling:EnergyTransfer:Zone:S546 PERIMETER \- OPEN OFFICE_\{11298\},hourly; !- [J]
Output:Meter:Cumulative,Cooling:EnergyTransfer:Zone:S546 PERIMETER \- OPEN OFFICE_\{11298\},hourly; !- [J]
Output:Meter,General:Cooling:EnergyTransfer:Zone:S546 PERIMETER \- OPEN OFFICE_\{11298\},hourly; !- [J]
Output:Meter:Cumulative,General:Cooling:EnergyTransfer:Zone:S546 PERIMETER \- OPEN OFFICE_\{11298\},hourly; !- [J]
Output:Meter,EnergyTransfer:Zone:S586 \- ELEVATOR SHAFT_\{11291\},hourly; !- [J]
Output:Meter:Cumulative,EnergyTransfer:Zone:S586 \- ELEVATOR SHAFT_\{11291\},hourly; !- [J]
Output:Meter,Heating:EnergyTransfer:Zone:S586 \- ELEVATOR SHAFT_\{11291\},hourly; !- [J]
Output:Meter:Cumulative,Heating:EnergyTransfer:Zone:S586 \- ELEVATOR SHAFT_\{11291\},hourly; !- [J]
Output:Meter,General:Heating:EnergyTransfer:Zone:S586 \- ELEVATOR SHAFT_\{11291\},hourly; !- [J]
Output:Meter:Cumulative,General:Heating:EnergyTransfer:Zone:S586 \- ELEVATOR SHAFT_\{11291\},hourly; !- [J]
Output:Meter,Cooling:EnergyTransfer:Zone:S586 \- ELEVATOR SHAFT_\{11291\},hourly; !- [J]
Output:Meter:Cumulative,Cooling:EnergyTransfer:Zone:S586 \- ELEVATOR SHAFT_\{11291\},hourly; !- [J]
Output:Meter,General:Cooling:EnergyTransfer:Zone:S586 \- ELEVATOR SHAFT_\{11291\},hourly; !- [J]
Output:Meter:Cumulative,General:Cooling:EnergyTransfer:Zone:S586 \- ELEVATOR SHAFT_\{11291\},hourly; !- [J]
Output:Meter,EnergyTransfer:Zone:S587 \- ELEVATOR 3_\{11284\},hourly; !- [J]
Output:Meter:Cumulative,EnergyTransfer:Zone:S587 \- ELEVATOR 3_\{11284\},hourly; !- [J]
Output:Meter,Heating:EnergyTransfer:Zone:S587 \- ELEVATOR 3_\{11284\},hourly; !- [J]
Output:Meter:Cumulative,Heating:EnergyTransfer:Zone:S587 \- ELEVATOR 3_\{11284\},hourly; !- [J]
Output:Meter,General:Heating:EnergyTransfer:Zone:S587 \- ELEVATOR 3_\{11284\},hourly; !- [J]
Output:Meter:Cumulative,General:Heating:EnergyTransfer:Zone:S587 \- ELEVATOR 3_\{11284\},hourly; !- [J]
Output:Meter,Cooling:EnergyTransfer:Zone:S587 \- ELEVATOR 3_\{11284\},hourly; !- [J]
Output:Meter:Cumulative,Cooling:EnergyTransfer:Zone:S587 \- ELEVATOR 3_\{11284\},hourly; !- [J]
Output:Meter,General:Cooling:EnergyTransfer:Zone:S587 \- ELEVATOR 3_\{11284\},hourly; !- [J]
Output:Meter:Cumulative,General:Cooling:EnergyTransfer:Zone:S587 \- ELEVATOR 3_\{11284\},hourly; !- [J]
Output:Meter,EnergyTransfer:Zone:S595 \- STAIR 2_\{11277\},hourly; !- [J]
Output:Meter:Cumulative,EnergyTransfer:Zone:S595 \- STAIR 2_\{11277\},hourly; !- [J]
Output:Meter,Heating:EnergyTransfer:Zone:S595 \- STAIR 2_\{11277\},hourly; !- [J]
Output:Meter:Cumulative,Heating:EnergyTransfer:Zone:S595 \- STAIR 2_\{11277\},hourly; !- [J]
Output:Meter,General:Heating:EnergyTransfer:Zone:S595 \- STAIR 2_\{11277\},hourly; !- [J]
Output:Meter:Cumulative,General:Heating:EnergyTransfer:Zone:S595 \- STAIR 2_\{11277\},hourly; !- [J]
Output:Meter,Cooling:EnergyTransfer:Zone:S595 \- STAIR 2_\{11277\},hourly; !- [J]
Output:Meter:Cumulative,Cooling:EnergyTransfer:Zone:S595 \- STAIR 2_\{11277\},hourly; !- [J]
Output:Meter,General:Cooling:EnergyTransfer:Zone:S595 \- STAIR 2_\{11277\},hourly; !- [J]
Output:Meter:Cumulative,General:Cooling:EnergyTransfer:Zone:S595 \- STAIR 2_\{11277\},hourly; !- [J]
Output:Meter,EnergyTransfer:Zone:S597 \- STAIR 4_\{11270\},hourly; !- [J]
Output:Meter:Cumulative,EnergyTransfer:Zone:S597 \- STAIR 4_\{11270\},hourly; !- [J]
Output:Meter,Heating:EnergyTransfer:Zone:S597 \- STAIR 4_\{11270\},hourly; !- [J]
Output:Meter:Cumulative,Heating:EnergyTransfer:Zone:S597 \- STAIR 4_\{11270\},hourly; !- [J]
Output:Meter,General:Heating:EnergyTransfer:Zone:S597 \- STAIR 4_\{11270\},hourly; !- [J]
Output:Meter:Cumulative,General:Heating:EnergyTransfer:Zone:S597 \- STAIR 4_\{11270\},hourly; !- [J]
Output:Meter,Cooling:EnergyTransfer:Zone:S597 \- STAIR 4_\{11270\},hourly; !- [J]
Output:Meter:Cumulative,Cooling:EnergyTransfer:Zone:S597 \- STAIR 4_\{11270\},hourly; !- [J]
Output:Meter,General:Cooling:EnergyTransfer:Zone:S597 \- STAIR 4_\{11270\},hourly; !- [J]
Output:Meter:Cumulative,General:Cooling:EnergyTransfer:Zone:S597 \- STAIR 4_\{11270\},hourly; !- [J]
Output:Meter,EnergyTransfer:Zone:THERMAL ZONE 1,hourly; !- [J]
Output:Meter:Cumulative,EnergyTransfer:Zone:THERMAL ZONE 1,hourly; !- [J]
Output:Meter,Heating:EnergyTransfer:Zone:THERMAL ZONE 1,hourly; !- [J]
Output:Meter:Cumulative,Heating:EnergyTransfer:Zone:THERMAL ZONE 1,hourly; !- [J]
Output:Meter,General:Heating:EnergyTransfer:Zone:THERMAL ZONE 1,hourly; !- [J]
Output:Meter:Cumulative,General:Heating:EnergyTransfer:Zone:THERMAL ZONE 1,hourly; !- [J]
Output:Meter,Cooling:EnergyTransfer:Zone:THERMAL ZONE 1,hourly; !- [J]
Output:Meter:Cumulative,Cooling:EnergyTransfer:Zone:THERMAL ZONE 1,hourly; !- [J]
Output:Meter,General:Cooling:EnergyTransfer:Zone:THERMAL ZONE 1,hourly; !- [J]
Output:Meter:Cumulative,General:Cooling:EnergyTransfer:Zone:THERMAL ZONE 1,hourly; !- [J]
Output:Meter,EnergyTransfer:Zone:THERMAL ZONE 2,hourly; !- [J]
Output:Meter:Cumulative,EnergyTransfer:Zone:THERMAL ZONE 2,hourly; !- [J]
Output:Meter,Heating:EnergyTransfer:Zone:THERMAL ZONE 2,hourly; !- [J]
Output:Meter:Cumulative,Heating:EnergyTransfer:Zone:THERMAL ZONE 2,hourly; !- [J]
Output:Meter,General:Heating:EnergyTransfer:Zone:THERMAL ZONE 2,hourly; !- [J]
Output:Meter:Cumulative,General:Heating:EnergyTransfer:Zone:THERMAL ZONE 2,hourly; !- [J]
Output:Meter,Cooling:EnergyTransfer:Zone:THERMAL ZONE 2,hourly; !- [J]
Output:Meter:Cumulative,Cooling:EnergyTransfer:Zone:THERMAL ZONE 2,hourly; !- [J]
Output:Meter,General:Cooling:EnergyTransfer:Zone:THERMAL ZONE 2,hourly; !- [J]
Output:Meter:Cumulative,General:Cooling:EnergyTransfer:Zone:THERMAL ZONE 2,hourly; !- [J]
Output:Meter,EnergyTransfer:Zone:THERMAL ZONE 3,hourly; !- [J]
Output:Meter:Cumulative,EnergyTransfer:Zone:THERMAL ZONE 3,hourly; !- [J]
Output:Meter,Heating:EnergyTransfer:Zone:THERMAL ZONE 3,hourly; !- [J]
Output:Meter:Cumulative,Heating:EnergyTransfer:Zone:THERMAL ZONE 3,hourly; !- [J]
Output:Meter,General:Heating:EnergyTransfer:Zone:THERMAL ZONE 3,hourly; !- [J]
Output:Meter:Cumulative,General:Heating:EnergyTransfer:Zone:THERMAL ZONE 3,hourly; !- [J]
Output:Meter,Cooling:EnergyTransfer:Zone:THERMAL ZONE 3,hourly; !- [J]
Output:Meter:Cumulative,Cooling:EnergyTransfer:Zone:THERMAL ZONE 3,hourly; !- [J]
Output:Meter,General:Cooling:EnergyTransfer:Zone:THERMAL ZONE 3,hourly; !- [J]
Output:Meter:Cumulative,General:Cooling:EnergyTransfer:Zone:THERMAL ZONE 3,hourly; !- [J]
Output:Meter,EnergyTransfer:Zone:THERMAL ZONE 4,hourly; !- [J]
Output:Meter:Cumulative,EnergyTransfer:Zone:THERMAL ZONE 4,hourly; !- [J]
Output:Meter,Heating:EnergyTransfer:Zone:THERMAL ZONE 4,hourly; !- [J]
Output:Meter:Cumulative,Heating:EnergyTransfer:Zone:THERMAL ZONE 4,hourly; !- [J]
Output:Meter,General:Heating:EnergyTransfer:Zone:THERMAL ZONE 4,hourly; !- [J]
Output:Meter:Cumulative,General:Heating:EnergyTransfer:Zone:THERMAL ZONE 4,hourly; !- [J]
Output:Meter,Cooling:EnergyTransfer:Zone:THERMAL ZONE 4,hourly; !- [J]
Output:Meter:Cumulative,Cooling:EnergyTransfer:Zone:THERMAL ZONE 4,hourly; !- [J]
Output:Meter,General:Cooling:EnergyTransfer:Zone:THERMAL ZONE 4,hourly; !- [J]
Output:Meter:Cumulative,General:Cooling:EnergyTransfer:Zone:THERMAL ZONE 4,hourly; !- [J]
Output:Meter,EnergyTransfer:Zone:THERMAL ZONE 5,hourly; !- [J]
Output:Meter:Cumulative,EnergyTransfer:Zone:THERMAL ZONE 5,hourly; !- [J]
Output:Meter,Heating:EnergyTransfer:Zone:THERMAL ZONE 5,hourly; !- [J]
Output:Meter:Cumulative,Heating:EnergyTransfer:Zone:THERMAL ZONE 5,hourly; !- [J]
Output:Meter,General:Heating:EnergyTransfer:Zone:THERMAL ZONE 5,hourly; !- [J]
Output:Meter:Cumulative,General:Heating:EnergyTransfer:Zone:THERMAL ZONE 5,hourly; !- [J]
Output:Meter,Cooling:EnergyTransfer:Zone:THERMAL ZONE 5,hourly; !- [J]
Output:Meter:Cumulative,Cooling:EnergyTransfer:Zone:THERMAL ZONE 5,hourly; !- [J]
Output:Meter,General:Cooling:EnergyTransfer:Zone:THERMAL ZONE 5,hourly; !- [J]
Output:Meter:Cumulative,General:Cooling:EnergyTransfer:Zone:THERMAL ZONE 5,hourly; !- [J]
Output:Meter,EnergyTransfer:Zone:THERMAL ZONE 6,hourly; !- [J]
Output:Meter:Cumulative,EnergyTransfer:Zone:THERMAL ZONE 6,hourly; !- [J]
Output:Meter,Heating:EnergyTransfer:Zone:THERMAL ZONE 6,hourly; !- [J]
Output:Meter:Cumulative,Heating:EnergyTransfer:Zone:THERMAL ZONE 6,hourly; !- [J]
Output:Meter,General:Heating:EnergyTransfer:Zone:THERMAL ZONE 6,hourly; !- [J]
Output:Meter:Cumulative,General:Heating:EnergyTransfer:Zone:THERMAL ZONE 6,hourly; !- [J]
Output:Meter,Cooling:EnergyTransfer:Zone:THERMAL ZONE 6,hourly; !- [J]
Output:Meter:Cumulative,Cooling:EnergyTransfer:Zone:THERMAL ZONE 6,hourly; !- [J]
Output:Meter,General:Cooling:EnergyTransfer:Zone:THERMAL ZONE 6,hourly; !- [J]
Output:Meter:Cumulative,General:Cooling:EnergyTransfer:Zone:THERMAL ZONE 6,hourly; !- [J]
Output:Meter,EnergyTransfer:Zone:THERMAL ZONE 7,hourly; !- [J]
Output:Meter:Cumulative,EnergyTransfer:Zone:THERMAL ZONE 7,hourly; !- [J]
Output:Meter,Heating:EnergyTransfer:Zone:THERMAL ZONE 7,hourly; !- [J]
Output:Meter:Cumulative,Heating:EnergyTransfer:Zone:THERMAL ZONE 7,hourly; !- [J]
Output:Meter,General:Heating:EnergyTransfer:Zone:THERMAL ZONE 7,hourly; !- [J]
Output:Meter:Cumulative,General:Heating:EnergyTransfer:Zone:THERMAL ZONE 7,hourly; !- [J]
Output:Meter,Cooling:EnergyTransfer:Zone:THERMAL ZONE 7,hourly; !- [J]
Output:Meter:Cumulative,Cooling:EnergyTransfer:Zone:THERMAL ZONE 7,hourly; !- [J]
Output:Meter,General:Cooling:EnergyTransfer:Zone:THERMAL ZONE 7,hourly; !- [J]
Output:Meter:Cumulative,General:Cooling:EnergyTransfer:Zone:THERMAL ZONE 7,hourly; !- [J]
Output:Meter,ElectricityProduced:Facility,hourly; !- [J]
Output:Meter:Cumulative,ElectricityProduced:Facility,hourly; !- [J]
Output:Meter,ElectricityProduced:Plant,hourly; !- [J]
Output:Meter:Cumulative,ElectricityProduced:Plant,hourly; !- [J]
Output:Meter,PowerConversion:ElectricityProduced,hourly; !- [J]
Output:Meter:Cumulative,PowerConversion:ElectricityProduced,hourly; !- [J]
Output:Meter,Electricity:Plant,hourly; !- [J]
Output:Meter:Cumulative,Electricity:Plant,hourly; !- [J]
Output:Meter,Cogeneration:Electricity,hourly; !- [J]
Output:Meter:Cumulative,Cogeneration:Electricity,hourly; !- [J]
Output:Meter,DCtoACInverter Ancillary:Cogeneration:Electricity,hourly; !- [J]
Output:Meter:Cumulative,DCtoACInverter Ancillary:Cogeneration:Electricity,hourly; !- [J]
Output:Meter,ElectricStorage:ElectricityProduced,hourly; !- [J]
Output:Meter:Cumulative,ElectricStorage:ElectricityProduced,hourly; !- [J]
Output:Meter,ACtoDCConverter Ancillary:Cogeneration:Electricity,hourly; !- [J]
Output:Meter:Cumulative,ACtoDCConverter Ancillary:Cogeneration:Electricity,hourly; !- [J]
Output:Meter,ElectricityPurchased:Facility,hourly; !- [J]
Output:Meter:Cumulative,ElectricityPurchased:Facility,hourly; !- [J]
Output:Meter,ElectricityPurchased:Plant,hourly; !- [J]
Output:Meter:Cumulative,ElectricityPurchased:Plant,hourly; !- [J]
Output:Meter,Cogeneration:ElectricityPurchased,hourly; !- [J]
Output:Meter:Cumulative,Cogeneration:ElectricityPurchased,hourly; !- [J]
Output:Meter,General:Cogeneration:ElectricityPurchased,hourly; !- [J]
Output:Meter:Cumulative,General:Cogeneration:ElectricityPurchased,hourly; !- [J]
Output:Meter,ElectricitySurplusSold:Facility,hourly; !- [J]
Output:Meter:Cumulative,ElectricitySurplusSold:Facility,hourly; !- [J]
Output:Meter,ElectricitySurplusSold:Plant,hourly; !- [J]
Output:Meter:Cumulative,ElectricitySurplusSold:Plant,hourly; !- [J]
Output:Meter,Cogeneration:ElectricitySurplusSold,hourly; !- [J]
Output:Meter:Cumulative,Cogeneration:ElectricitySurplusSold,hourly; !- [J]
Output:Meter,General:Cogeneration:ElectricitySurplusSold,hourly; !- [J]
Output:Meter:Cumulative,General:Cogeneration:ElectricitySurplusSold,hourly; !- [J]
Output:Meter,ElectricityNet:Facility,hourly; !- [J]
Output:Meter:Cumulative,ElectricityNet:Facility,hourly; !- [J]
Output:Meter,ElectricityNet:Plant,hourly; !- [J]
Output:Meter:Cumulative,ElectricityNet:Plant,hourly; !- [J]
Output:Meter,Cogeneration:ElectricityNet,hourly; !- [J]
Output:Meter:Cumulative,Cogeneration:ElectricityNet,hourly; !- [J]
Output:Meter,General:Cogeneration:ElectricityNet,hourly; !- [J]
Output:Meter:Cumulative,General:Cogeneration:ElectricityNet,hourly; !- [J]
Output:Meter,EnergyTransfer:HVAC,hourly; !- [J]
Output:Meter:Cumulative,EnergyTransfer:HVAC,hourly; !- [J]
Output:Meter,CoolingCoils:EnergyTransfer,hourly; !- [J]
Output:Meter:Cumulative,CoolingCoils:EnergyTransfer,hourly; !- [J]
Output:Meter,PlantLoopCoolingDemand:Facility,hourly; !- [J]
Output:Meter:Cumulative,PlantLoopCoolingDemand:Facility,hourly; !- [J]
Output:Meter,PlantLoopCoolingDemand:HVAC,hourly; !- [J]
Output:Meter:Cumulative,PlantLoopCoolingDemand:HVAC,hourly; !- [J]
Output:Meter,CoolingCoils:PlantLoopCoolingDemand,hourly; !- [J]
Output:Meter:Cumulative,CoolingCoils:PlantLoopCoolingDemand,hourly; !- [J]
Output:Meter,HeatingCoils:EnergyTransfer,hourly; !- [J]
Output:Meter:Cumulative,HeatingCoils:EnergyTransfer,hourly; !- [J]
Output:Meter,Electricity:HVAC,hourly; !- [J]
Output:Meter:Cumulative,Electricity:HVAC,hourly; !- [J]
Output:Meter,Heating:Electricity,hourly; !- [J]
Output:Meter:Cumulative,Heating:Electricity,hourly; !- [J]
Output:Meter,General:Heating:Electricity,hourly; !- [J]
Output:Meter:Cumulative,General:Heating:Electricity,hourly; !- [J]
Output:Meter,Fans:Electricity,hourly; !- [J]
Output:Meter:Cumulative,Fans:Electricity,hourly; !- [J]
Output:Meter,General:Fans:Electricity,hourly; !- [J]
Output:Meter:Cumulative,General:Fans:Electricity,hourly; !- [J]
Output:Meter,Cooling:Electricity,hourly; !- [J]
Output:Meter:Cumulative,Cooling:Electricity,hourly; !- [J]
Output:Meter,General:Cooling:Electricity,hourly; !- [J]
Output:Meter:Cumulative,General:Cooling:Electricity,hourly; !- [J]
Output:Meter,EnergyTransfer:Plant,hourly; !- [J]
Output:Meter:Cumulative,EnergyTransfer:Plant,hourly; !- [J]
Output:Meter,Chillers:EnergyTransfer,hourly; !- [J]
Output:Meter:Cumulative,Chillers:EnergyTransfer,hourly; !- [J]
Output:Meter,HeatRejection:EnergyTransfer,hourly; !- [J]
Output:Meter:Cumulative,HeatRejection:EnergyTransfer,hourly; !- [J]
Output:Meter,General:HeatRejection:EnergyTransfer,hourly; !- [J]
Output:Meter:Cumulative,General:HeatRejection:EnergyTransfer,hourly; !- [J]
Output:Meter,HeatRejection:Electricity,hourly; !- [J]
Output:Meter:Cumulative,HeatRejection:Electricity,hourly; !- [J]
Output:Meter,General:HeatRejection:Electricity,hourly; !- [J]
Output:Meter:Cumulative,General:HeatRejection:Electricity,hourly; !- [J]
Output:Meter,Water:Facility,hourly; !- [m3]
Output:Meter:Cumulative,Water:Facility,hourly; !- [m3]
Output:Meter,Water:Plant,hourly; !- [m3]
Output:Meter:Cumulative,Water:Plant,hourly; !- [m3]
Output:Meter,HeatRejection:Water,hourly; !- [m3]
Output:Meter:Cumulative,HeatRejection:Water,hourly; !- [m3]
Output:Meter,General:HeatRejection:Water,hourly; !- [m3]
Output:Meter:Cumulative,General:HeatRejection:Water,hourly; !- [m3]
Output:Meter,MainsWater:Facility,hourly; !- [m3]
Output:Meter:Cumulative,MainsWater:Facility,hourly; !- [m3]
Output:Meter,MainsWater:Plant,hourly; !- [m3]
Output:Meter:Cumulative,MainsWater:Plant,hourly; !- [m3]
Output:Meter,HeatRejection:MainsWater,hourly; !- [m3]
Output:Meter:Cumulative,HeatRejection:MainsWater,hourly; !- [m3]
Output:Meter,General:HeatRejection:MainsWater,hourly; !- [m3]
Output:Meter:Cumulative,General:HeatRejection:MainsWater,hourly; !- [m3]
Output:Meter,Pumps:Electricity,hourly; !- [J]
Output:Meter:Cumulative,Pumps:Electricity,hourly; !- [J]
Output:Meter,General:Pumps:Electricity,hourly; !- [J]
Output:Meter:Cumulative,General:Pumps:Electricity,hourly; !- [J]
Output:Meter,Carbon Equivalent:Facility,hourly; !- [kg]
Output:Meter:Cumulative,Carbon Equivalent:Facility,hourly; !- [kg]
Output:Meter,CarbonEquivalentEmissions:Carbon Equivalent,hourly; !- [kg]
Output:Meter:Cumulative,CarbonEquivalentEmissions:Carbon Equivalent,hourly; !- [kg]
