  0
SECTION
  2
ENTITIES
999
DXF created from EnergyPlus
999
Program Version,EnergyPlus, Version 24.2.0-94a887817b, YMD=2024.10.29 10:36
999
Polygon Action,TRIANGULATE3DFACE
999
Color Scheme,Default
999
Text - True North
  0
TEXT
  8
1
  6
Continuous
 62
  3
 10
       -0.04000
 20
      -98.30000
 30
        0.10000
 40
 .25
  1
True North
 41
 0.0
  7
MONOTXT
210
0.0
220
0.0
230
1.0
999
Text - Building Title
  0
TEXT
  8
1
  6
Continuous
 62
  3
 10
       -3.04000
 20
     -102.30000
 30
        0.10000
 40
 .4
  1
Building - SubjectBuilding_\{00118\}
 41
 0.0
  7
MONOTXT
210
0.0
220
0.0
230
1.0
999
North Arrow Stem
  0
3DFACE
  8
1
 62
  3
 10
        0.96000
 20
      -98.30000
 30
        0.10000
 11
        0.96000
 21
      -98.30000
 31
        0.00000
 12
        0.96000
 22
     -101.30000
 32
        0.00000
 13
        0.96000
 23
     -101.30000
 33
        0.10000
999
North Arrow Head 1
  0
3DFACE
  8
1
 62
  3
 10
        0.96000
 20
      -98.30000
 30
        0.10000
 11
        0.96000
 21
      -98.30000
 31
        0.00000
 12
        0.46000
 22
      -99.16602
 32
        0.00000
 13
        0.46000
 23
      -99.16602
 33
        0.10000
999
North Arrow Head 2
  0
3DFACE
  8
1
 62
  3
 10
        0.96000
 20
      -98.30000
 30
        0.10000
 11
        0.96000
 21
      -98.30000
 31
        0.00000
 12
        1.46000
 22
      -99.16602
 32
        0.00000
 13
        1.46000
 23
      -99.16602
 33
        0.10000
999
North Arrow Side 1
  0
3DFACE
  8
1
 62
  3
 10
        0.46000
 20
      -96.80000
 30
        0.10000
 11
        0.46000
 21
      -96.80000
 31
        0.00000
 12
        0.46000
 22
      -97.80000
 32
        0.00000
 13
        0.46000
 23
      -97.80000
 33
        0.10000
999
North Arrow Side 2
  0
3DFACE
  8
1
 62
  3
 10
        0.46000
 20
      -96.80000
 30
        0.10000
 11
        0.46000
 21
      -96.80000
 31
        0.00000
 12
        1.46000
 22
      -97.80000
 32
        0.00000
 13
        1.46000
 23
      -97.80000
 33
        0.10000
999
North Arrow Side 3
  0
3DFACE
  8
1
 62
  3
 10
        1.46000
 20
      -96.80000
 30
        0.10000
 11
        1.46000
 21
      -96.80000
 31
        0.00000
 12
        1.46000
 22
      -97.80000
 32
        0.00000
 13
        1.46000
 23
      -97.80000
 33
        0.10000
999
Zone Names
999
Zone=1:A100_RECEPTION_\{13822\}
999
Zone=2:A220_\-_ATRIUM_\{13815\}
999
Zone=3:A320_\-_ATRIUM_\{13808\}
999
Zone=4:A420_\-_ATRIUM_\{13801\}
999
Zone=5:A500A_\-_STORAGE_\{13794\}
999
Zone=6:A501_\-_BRIDGE_\{13787\}
999
Zone=7:LEVEL_1\.2_SPACE_\{13780\}
999
Zone=8:N101_\-_PRE\-FUNCTION_\{13773\}
999
Zone=9:N102_\-_CONFERENCE_\{13766\}
999
Zone=10:N102A_\-_STORAGE_\{13759\}
999
Zone=11:N103_\-_JANITOR_\{13752\}
999
Zone=12:N104_\-_BUSINESS_CENTER_\{13745\}
999
Zone=13:N104A_\-_GREENROOM_\{13738\}
999
Zone=14:N104B_\-_LUGGAGE_STORAGE_\{13731\}
999
Zone=15:N104D_\-_STORAGE_\{13724\}
999
Zone=16:N105/106_\-_RESTROOM_\{13716\}
999
Zone=17:N107_\-_AV/IDF_\{13709\}
999
Zone=18:N108/109_\-_RESTROOM_\{13701\}
999
Zone=19:N110_\-_CORRIDOR_\{13694\}
999
Zone=20:N111_\-_ELEC_\{13687\}
999
Zone=21:N112_\-_WATER_HEATER_\{13680\}
999
Zone=22:N113_\-_MECHANICAL_\{13673\}
999
Zone=23:N114_\-_STORAGE_\{13666\}
999
Zone=24:N115_\-_CORRIDOR_\{13659\}
999
Zone=25:N116_\-_STORAGE_\{13652\}
999
Zone=26:N189/198_ELEV_STAIR_5_\{13645\}
999
Zone=27:N199_\-_STAIR_6_\{13638\}
999
Zone=28:N201_\-_CORRIDOR_\{13631\}
999
Zone=29:N203_\-_WOMEN\'S_RESTROOM_\{13580\}
999
Zone=30:N204_\-_MEN\'S_RESTROOM_\{13616\}
999
Zone=31:N205_\-_ELECTRIC_ROOM_\{13609\}
999
Zone=32:N206_\-_JANITOR_\{13602\}
999
Zone=33:N209_\-_A/V_\{13595\}
999
Zone=34:N210_\-_MDF_\{13588\}
999
Zone=35:N211_\-_MECHANICAL_ROOM_\{13573\}
999
Zone=36:N213_\-_STAFF_OFFICE_\{13566\}
999
Zone=37:N214_\-_CONFERENCE_\{13559\}
999
Zone=38:N215_\-_CORRIDOR_\{13552\}
999
Zone=39:N216_\-_MULTIPURPOSE_\{13545\}
999
Zone=40:N217_\-_VESTIBULE_\{13538\}
999
Zone=41:N218_\-_VISITOR_OFFICE_\{13531\}
999
Zone=42:N219_\-_VISITOR_OFFICE_\{13524\}
999
Zone=43:N220_\-_CONFERENCE_ROOM_\{13624\}
999
Zone=44:N221_\-_PANTRY_\{13517\}
999
Zone=45:N225_\-_STORAGE_\{13510\}
999
Zone=46:N226_\-_CORRIDOR_\{13503\}
999
Zone=47:N227_\-_A/V_\{13496\}
999
Zone=48:N230_\-_CUSTEXP_\-_VRF4_\{13489\}
999
Zone=49:N231_\-_CUSTEXP_AHU_\{13482\}
999
Zone=50:N232_\-_CUSTEXP_\-_WSHP_\{13475\}
999
Zone=51:N233_\-_CUSTEXP_\-_VRF1_\{13468\}
999
Zone=52:N234_\-_CUSTEXP_\-_VRF_2_\{13461\}
999
Zone=53:N235_\-_CUSTEXP_\-_VRF3_\{13454\}
999
Zone=54:N289_\-_ELEVATOR_5_\{13447\}
999
Zone=55:N298_\-_STAIR_5_\{13440\}
999
Zone=56:N299_\-_STAIR_6_\{13433\}
999
Zone=57:N301_\-_CORRIDOR_\{13426\}
999
Zone=58:N302_\-_JANITOR\'S_ROOM_\{13419\}
999
Zone=59:N303_\-_WOMEN\'S_RESTROOM_\{13412\}
999
Zone=60:N304_\-_MEN\'S_RESTROOM_\{13405\}
999
Zone=61:N305_\-_ELECTRICAL_ROOM_\{13398\}
999
Zone=62:N307_\-_AV_\{13391\}
999
Zone=63:N309_\-_BREAKROOM_\{13384\}
999
Zone=64:N310_\-_MOTHER\'S_ROOM_\{13377\}
999
Zone=65:N313A_INTERIOR_\-_OPEN_OFFICE_\{13370\}
999
Zone=66:N313A_PERIMETER_\-_OPEN_OFFICE_\{13363\}
999
Zone=67:N313B_INTERIOR_\-_OPEN_OFFICE_\{13356\}
999
Zone=68:N313B_PERIMETER_\-_OPEN_OFFICE_\{13349\}
999
Zone=69:N315_\-_COPY_\{13342\}
999
Zone=70:N316_\-_BOOTH_\{13335\}
999
Zone=71:N317A_\-_UNCONDITIONED_\{13328\}
999
Zone=72:N317B_\-_UNCONDITIONED_\{13321\}
999
Zone=73:N317C_\-_UNCONDITIONED_\{13314\}
999
Zone=74:N318_\-_OFFICE_\{13307\}
999
Zone=75:N319_\-_OFFICE_\{13300\}
999
Zone=76:N320_\-_OFFICE_\{13293\}
999
Zone=77:N321_\-_OFFICE_\{13286\}
999
Zone=78:N326_\-_OPEN_OFFICE_\{13279\}
999
Zone=79:N327_\-_EXECUTIVE_OFFICE_\{13272\}
999
Zone=80:N328_\-_EXECUTIVE_OFFICE_\{13265\}
999
Zone=81:N329_\-_EXECUTIVE_OFFICE_\{13258\}
999
Zone=82:N330_\-_OPEN_OFFICE_\{13251\}
999
Zone=83:N331_\-_EXECUTIVE_OFFICE_\{13244\}
999
Zone=84:N334_\-_OFFICE_\{13237\}
999
Zone=85:N335_\-_OFFICE_\{13230\}
999
Zone=86:N336_\-_OFFICE_\{13223\}
999
Zone=87:N337_\-_OFFICE_\{13216\}
999
Zone=88:N338_\-_OFFICE_\{13209\}
999
Zone=89:N339_\-_OFFICE_\{13202\}
999
Zone=90:N389_\-_ELEVATOR_5_\{13195\}
999
Zone=91:N398_\-_STAIR_5_\{13188\}
999
Zone=92:N399_\-_STAIR_6_\{13181\}
999
Zone=93:N401_\-_CORRIDOR_\{13174\}
999
Zone=94:N402_\-_JANITOR_\{13167\}
999
Zone=95:N402A_\-_UNCONDITIONED_\{13160\}
999
Zone=96:N403_\-_WOMEN\'S_RESTROOM_\{13153\}
999
Zone=97:N404_\-_MEN\'S_RESTROOM_\{13146\}
999
Zone=98:N405_\-_ELECTRIC_ROOM_\{13139\}
999
Zone=99:N407_\-_AV_\{13132\}
999
Zone=100:N409_\-_BREAK_ROOM_\{13125\}
999
Zone=101:N410_\-_FILES_ROOM_\{13118\}
999
Zone=102:N412_\-_STORAGE_\{13111\}
999
Zone=103:N414_WEST_END_\-_OPEN_OFFICE_\{13104\}
999
Zone=104:N414A_INTERIOR_\-_OPEN_OFFICE_\{13097\}
999
Zone=105:N414A_PERIMETER_\-_OPEN_OFFICE_\{13090\}
999
Zone=106:N414B_INTERIOR_\-_OPEN_OFFICE_\{13083\}
999
Zone=107:N414B_PERIMETER_\-_OPEN_OFFICE_\{13076\}
999
Zone=108:N415_\-_COPY_ROOM_\{13069\}
999
Zone=109:N416_\-_MECHANICAL_\{13062\}
999
Zone=110:N417_\-_OFFICE_\{13055\}
999
Zone=111:N418_\-_OFFICE_\{13048\}
999
Zone=112:N419_\-_OFFICE_\{13041\}
999
Zone=113:N423_\-_OFFICE_\{13034\}
999
Zone=114:N424_\-_OFFICE_\{13027\}
999
Zone=115:N425_\-_EXECUTIVE_OFFICE_\{13020\}
999
Zone=116:N426_\-_OPEN_OFFICE_\{13013\}
999
Zone=117:N427_\-_EXECUTIVE_OFFICE_\{13006\}
999
Zone=118:N428_\-_EXECUTIVE_OFFICE_\{12999\}
999
Zone=119:N429_\-_OFFICE_\{12992\}
999
Zone=120:N430_\-_OFFICE_\{12985\}
999
Zone=121:N431_\-_OFFICE_\{12978\}
999
Zone=122:N432_\-_OFFICE_\{12971\}
999
Zone=123:N433_\-_EXECUTIVE_OFFICE_\{12964\}
999
Zone=124:N434_\-_OPEN_OFFICE_\{12957\}
999
Zone=125:N435_\-_EXECUTIVE_OFFICE_\{12950\}
999
Zone=126:N437_\-_OFFICE_\{12943\}
999
Zone=127:N438_\-_HUDDLE_\{12936\}
999
Zone=128:N440_\-_BOOTH_\{12929\}
999
Zone=129:N441_\-_OFFICE_\{12922\}
999
Zone=130:N442_\-_OFFICE_\{12915\}
999
Zone=131:N443_\-_OFFICE_\{12908\}
999
Zone=132:N444_\-_OFFICE_\{12901\}
999
Zone=133:N445_\-_OFFICE_\{12894\}
999
Zone=134:N446_\-_OFFICE_\{12887\}
999
Zone=135:N489_\-_ELEVATOR_5_\{12880\}
999
Zone=136:N498_\-_STAIR_5_\{12873\}
999
Zone=137:N499_\-_STAIR_6_\{12866\}
999
Zone=138:N500_\-_UNCONDITIONED_SPACE_\{12859\}
999
Zone=139:N500A_\-_JANITOR_\{12852\}
999
Zone=140:N501_\-_CORRIDOR_\{12845\}
999
Zone=141:N503_\-_WOMEN\'S_RESTROOM_\{12838\}
999
Zone=142:N504_\-_MEN\'S_RESTROOM_\{12831\}
999
Zone=143:N505_\-_ELECTRICAL_ROOM_\{12824\}
999
Zone=144:N507_\-_AV_\{12817\}
999
Zone=145:N509_\-BREAKROOM_\{12810\}
999
Zone=146:N510_\-_ELEVATOR_MACHINE_ROOM_\{12803\}
999
Zone=147:N513_\-_STORAGE_\{12796\}
999
Zone=148:N514_\-_COPY_ROOM_\{12789\}
999
Zone=149:N515_\-_BOOTH_\{12782\}
999
Zone=150:N516_\-_OFFICE_\{12775\}
999
Zone=151:N517_\-_OFFICE_\{12768\}
999
Zone=152:N518_\-_OFFICE_\{12761\}
999
Zone=153:N521_\-_PANTRY_\{12754\}
999
Zone=154:N521A_\-_CATERING_PREP_\{12747\}
999
Zone=155:N523_\-_CORRIDOR_AND_RECEPTION_\{12740\}
999
Zone=156:N524_\-_OFFICE_\{12733\}
999
Zone=157:N525_\-_OFFICE_\{12726\}
999
Zone=158:N527_\-_BOARD_ROOM_\{12719\}
999
Zone=159:N528_\-_EXECUTIVE_OFFICE_\{12712\}
999
Zone=160:N529_\-_EXECUTIVE_OFFICE_\{12705\}
999
Zone=161:N530A_INTERIOR_\-_OPEN_OFFICE_\{12698\}
999
Zone=162:N530A_PERIMETER_\-_OPEN_OFFICE_\{12691\}
999
Zone=163:N530B_INTERIOR_\-_OPEN_OFFICE_\{12684\}
999
Zone=164:N530B_PERIMETER_\-_OPEN_OFFICE_\{12677\}
999
Zone=165:N531_\-_EXECUTIVE_OFFICE_\{12670\}
999
Zone=166:N532_\-_OFFICE_\{12663\}
999
Zone=167:N533_\-_OPEN_OFFICE_\{12656\}
999
Zone=168:N534_\-_PRESIDENT_OFFICE_\{12649\}
999
Zone=169:N535_\-_OFFICE_\{12642\}
999
Zone=170:N536_\-_OFFICE_\{12635\}
999
Zone=171:N537_\-_OFFICE_\{12628\}
999
Zone=172:N538_\-_HUDDLE_\{12621\}
999
Zone=173:N538_\-_OFFICE_\{12614\}
999
Zone=174:N539_\-_HUDDLE_\{12607\}
999
Zone=175:N540_\-_OFFICE_\{12600\}
999
Zone=176:N541_\-_OFFICE_\{12593\}
999
Zone=177:N542_\-_OFFICE_\{12586\}
999
Zone=178:N543_\-_OFFICE_\{12579\}
999
Zone=179:N544_\-_COPY_ROOM_\{12572\}
999
Zone=180:N546_\-_OFFICE_\{12565\}
999
Zone=181:N560_\-_CONFERENCE_\{12558\}
999
Zone=182:N562_\-_STORAGE_\{12551\}
999
Zone=183:N563_\-_CONFERENCE_\{12544\}
999
Zone=184:N589_\-_ELEVATOR_5_\{12537\}
999
Zone=185:N598_\-_STAIR_5_\{12530\}
999
Zone=186:N599_\-_STAIR_6_\{12523\}
999
Zone=187:S101_\-_CORRIDOR_\{12516\}
999
Zone=188:S102_\-_CORRIDOR_\{12509\}
999
Zone=189:S103_\-_FACILITIES_\{12502\}
999
Zone=190:S103A_\-_STORAGE_\{12495\}
999
Zone=191:S103B_\-_HUDDLE_\{12488\}
999
Zone=192:S104_\-_MECHANICAL_\{12481\}
999
Zone=193:S105_\-_ELECTRIC_ROOM_\{12474\}
999
Zone=194:S106_\-_DEMARK_\{12467\}
999
Zone=195:S107_\-_MEN\'S_RESTROOM_\{12460\}
999
Zone=196:S108_\-_WOMEN\'S_RESTROOM_\{12453\}
999
Zone=197:S109_\-_JANITOR_\{12446\}
999
Zone=198:S110_\-_SECURITY_CONFERENCE_\{12439\}
999
Zone=199:S111_\-_OPS_CONTROL_CENTER_\{12432\}
999
Zone=200:S112_\-_HUDDLE_\{12425\}
999
Zone=201:S113_\-_CORRIDOR_\{12418\}
999
Zone=202:S114_\-_AV_\{12411\}
999
Zone=203:S115_\-_SECURITY_OFFICE_\{12404\}
999
Zone=204:S116_\-_BADGE_\{12397\}
999
Zone=205:S117_\-_STORAGE_\{12390\}
999
Zone=206:S118_\-_TOILET_\{12383\}
999
Zone=207:S119_\-_RECEPTION_\{12376\}
999
Zone=208:S120___DINING_ROOM_\{12369\}
999
Zone=209:S123_\-_AV_\{12362\}
999
Zone=210:S124_\-_FIRE_PUMP_\{12355\}
999
Zone=211:S125_\-_WOMEN\'S_LOCKER_\{12348\}
999
Zone=212:S126_\-_MEN\'S_LOCKER_\{12341\}
999
Zone=213:S127_\-_BREAK_ROOM_\{12334\}
999
Zone=214:S128_\-_MAIL_ROOM_\{12327\}
999
Zone=215:S187_\-_ELEVATOR_3_\{12320\}
999
Zone=216:S195_\-_STAIR_2_\{12313\}
999
Zone=217:S195A_\-_CORRIDOR_\{12306\}
999
Zone=218:S197_\-_STAIR_4_\{12299\}
999
Zone=219:S201_\-_CORRIDOR_\{12292\}
999
Zone=220:S203_\-_ELECTRIC_\{12285\}
999
Zone=221:S204_\-_WOMEN\'S_RSETROOM_\{12278\}
999
Zone=222:S205_\-_MEN\'S_RESTROOM_\{12271\}
999
Zone=223:S206_\-_JANITOR_\{12264\}
999
Zone=224:S208_\-_CORRIDOR_\{12257\}
999
Zone=225:S209_\-_FOOD_PREP_\{12250\}
999
Zone=226:S210_\-_CAFE_\{12243\}
999
Zone=227:S211_\-_MECHANICAL_\{12236\}
999
Zone=228:S212_\-_CORRIDOR_\{12229\}
999
Zone=229:S213_\-_A/V_ROOM_\{12222\}
999
Zone=230:S214_\-_FITNESS_WAITING_\{12208\}
999
Zone=231:S214_\-_FITNESS_\{12215\}
999
Zone=232:S215_\-_GROUP_FITNESS_\{12201\}
999
Zone=233:S218_\-_WOMEN\'S_LOCKER_\{12194\}
999
Zone=234:S219_\-_MEN\'S_LOCKER_\{12187\}
999
Zone=235:S221_EXTERIOR_\-_OPEN_OFFICE_\{12180\}
999
Zone=236:S221_INTERIOR_\-_OPEN_OFFICE_\{12173\}
999
Zone=237:S222_\-_OPEN_OFFICE_\{12166\}
999
Zone=238:S223_\-_COPY_ROOM_\{12159\}
999
Zone=239:S224_\-_OFFICE_\{12152\}
999
Zone=240:S225_\-_HUDDLE_\{12145\}
999
Zone=241:S226_\-_OFFICE_\{12138\}
999
Zone=242:S227_\-_VISOTOR_OFFICE_\{12131\}
999
Zone=243:S228_\-_HUDDLE_\{12124\}
999
Zone=244:S229_\-_BOOTH_\{12117\}
999
Zone=245:S230_\-_OFFICE_\{12110\}
999
Zone=246:S231_\-_OFFICE_\{12103\}
999
Zone=247:S232_\-_OFFICE_\{12096\}
999
Zone=248:S233_\-_EXECUTIVE_OFFICE_\{12089\}
999
Zone=249:S233_\-_OFFICE_\{12082\}
999
Zone=250:S287_\-_ELEVATOR_3_\{12075\}
999
Zone=251:S295_\-_STAIR_2_\{12068\}
999
Zone=252:S297_\-_STAIR_4_\{12061\}
999
Zone=253:S301_\-_CORRIDOR_\{12054\}
999
Zone=254:S302_\-_MEN\'S_RESTROOM_\{12047\}
999
Zone=255:S303_\-_WOMEN\'S_RESTROOM_\{12040\}
999
Zone=256:S305_\-_ELECTRIC_\{12033\}
999
Zone=257:S308_\-_AV_\{12026\}
999
Zone=258:S309_\-_BREAK_ROOM_\{12019\}
999
Zone=259:S314_\-_OPEN_OFFICE_\{12012\}
999
Zone=260:S315_\-_CONFERENCE_\{12005\}
999
Zone=261:S317_INTERIOR_1_\-_OPEN_OFFICE_\{11991\}
999
Zone=262:S317_INTERIOR_\-_OPEN_OFFICE_\{11998\}
999
Zone=263:S317_PERIMETER_1_\-_OPEN_OFFICE_\{11977\}
999
Zone=264:S317_PERIMETER_\-_OPEN_OFFICE_\{11984\}
999
Zone=265:S319_\-_BOOTH_\{11970\}
999
Zone=266:S320_\-_OFFICE_\{11963\}
999
Zone=267:S321_\-_OFFICE_\{11956\}
999
Zone=268:S322_\-_OFFICE_\{11949\}
999
Zone=269:S323_\-_OFFICE_\{11942\}
999
Zone=270:S324_\-_COPY_ROOM_\{11935\}
999
Zone=271:S325_\-_OFFICE_\{11928\}
999
Zone=272:S326_\-_BOOTH_\{11921\}
999
Zone=273:S327_\-_OFFICE_\{11914\}
999
Zone=274:S328_\-_OFFICE_\{11907\}
999
Zone=275:S329_\-_OFFICE_\{11900\}
999
Zone=276:S333_\-_OPEN_OFFICE_\{11893\}
999
Zone=277:S334_\-_CONFERENCE_\{11886\}
999
Zone=278:S335_\-_OPEN_OFFICE_\{11879\}
999
Zone=279:S335A_\-_STORAGE_\{11872\}
999
Zone=280:S387_\-_ELEVATOR_3_\{11865\}
999
Zone=281:S395_\-_STAIR_2_\{11858\}
999
Zone=282:S397_\-_STAIR_4_\{11851\}
999
Zone=283:S4_\-_MECH_SHAFT_1_\{11844\}
999
Zone=284:S4_\-_MECH_SHAFT_2_\{11837\}
999
Zone=285:S4_\-_MECH_SHAFT_3_\{11830\}
999
Zone=286:S4_\-_MECHANICAL_4_\{11823\}
999
Zone=287:S401_\-_BATHROOM_\{11816\}
999
Zone=288:S401_\-_CORRIDOR_\{11809\}
999
Zone=289:S402_\-_BATHROOM_\{11802\}
999
Zone=290:S404_\-_STORAGE_\{11795\}
999
Zone=291:S405_\-_ELECTRICAL_\{11788\}
999
Zone=292:S408_\-_AV/DF_\{11781\}
999
Zone=293:S409_\-_BREAKROOM_\{11774\}
999
Zone=294:S414_\-_OFFICE_\{11767\}
999
Zone=295:S415_\-_CONFERENCE_\{11760\}
999
Zone=296:S416_\-_PANTRY_\{11753\}
999
Zone=297:S417_\-_OFFICE_\{11746\}
999
Zone=298:S418A_\-_OPEN_OFFICE_\{11739\}
999
Zone=299:S418B_\-_OPEN_OFFICE_\{11732\}
999
Zone=300:S419_\-_COPY_\{11725\}
999
Zone=301:S420_\-_BOOTH_\{11718\}
999
Zone=302:S421_\-_OFFICE_\{11711\}
999
Zone=303:S422_\-_OFFICE_\{11704\}
999
Zone=304:S423_\-_OFFICE_\{11697\}
999
Zone=305:S424_\-_OFFICE_\{11690\}
999
Zone=306:S425_\-_COPY_\{11683\}
999
Zone=307:S426_\-_OFFICE_\{11676\}
999
Zone=308:S428_\-_BOOTH_\{11669\}
999
Zone=309:S429_\-_OFFICE_\{11662\}
999
Zone=310:S430_\-_OFFICE_\{11655\}
999
Zone=311:S431_\-_OFFICE_\{11648\}
999
Zone=312:S431_\-_STORAGE_\{11641\}
999
Zone=313:S433_\-_CONFERENCE_\{11634\}
999
Zone=314:S434_\-_OPEN_OFFICE_\{11627\}
999
Zone=315:S439_\-_OPEN_OFFICE_\{11620\}
999
Zone=316:S487_\-_ELEVATOR_3_SHAFT_\{11613\}
999
Zone=317:S495_\-_STAIR_2_\{11606\}
999
Zone=318:S496_\-_STAIR_4_\{11599\}
999
Zone=319:S501_\-_CORRIDOR_\{11592\}
999
Zone=320:S502_\-_MEN\'S_RESTROOM_\{11585\}
999
Zone=321:S503_\-_WOMEN\'S_RESTROOM_\{11578\}
999
Zone=322:S504_\-VESTIBULE_\{11571\}
999
Zone=323:S505_\-_ELECTRIC_ROOM_\{11564\}
999
Zone=324:S506_\-_VESTIBULE_\{11557\}
999
Zone=325:S507_\-_JANITOR_\{11550\}
999
Zone=326:S508_\-_AV_\{11543\}
999
Zone=327:S509_\-_ELEVATOR_MACHINEROOM_\{11536\}
999
Zone=328:S510_\-_BREAKROOM_\{11529\}
999
Zone=329:S511_\-_OFFICE_\{11522\}
999
Zone=330:S515_\-_CONFERENCE_ROOM_\{11515\}
999
Zone=331:S516_\-_OPENOFFICE_\{11508\}
999
Zone=332:S517_\-_EXECUTIVE_OFFICE_\{11501\}
999
Zone=333:S518_\-_OFFICE_\{11494\}
999
Zone=334:S519_\-_OFFICE_\{11487\}
999
Zone=335:S520_\-_OFFICE_\{11480\}
999
Zone=336:S521_\-_OFFICE_\{11473\}
999
Zone=337:S523_\-_OFFICE_\{11466\}
999
Zone=338:S524_\-_OFFICE_\{11459\}
999
Zone=339:S525_\-_OFFICE_\{11452\}
999
Zone=340:S526_\-_OFFICE_\{11445\}
999
Zone=341:S527_\-_OFFICE_\{11438\}
999
Zone=342:S528A_INTERIOR_\-_OPEN_OFFICE_\{11431\}
999
Zone=343:S528A_PERIMETER_\-_OPEN_OFFICE_\{11424\}
999
Zone=344:S528B_INTERIOR_\-_OPEN_OFFICE_\{11417\}
999
Zone=345:S528B_PERIMETER_\-_OPEN_OFFICE_\{11410\}
999
Zone=346:S529_\-_COPY_ROOM_\{11403\}
999
Zone=347:S530_\-_OFFICE_\{11396\}
999
Zone=348:S531_\-_OPEN_OFFICE_\{11389\}
999
Zone=349:S532_\-_CONFERENCE_\{11382\}
999
Zone=350:S533_\-_OFFICE_\{11375\}
999
Zone=351:S535_\-_STORAGE_\{11368\}
999
Zone=352:S536_\-_BOOTH_\{11361\}
999
Zone=353:S537_\-_OFFICE_\{11354\}
999
Zone=354:S538_\-_OFFICE_\{11347\}
999
Zone=355:S539_\-_OFFICE_\{11340\}
999
Zone=356:S540_\-_OFFICE_\{11333\}
999
Zone=357:S541_\-_OFFICE_\{11326\}
999
Zone=358:S544_\-_EXECUTIVE_OFFICE_\{11319\}
999
Zone=359:S545_\-_EXECUTIVE_OFFICE_\{11312\}
999
Zone=360:S546_INTERIOR_\-_OPEN_OFFICE_\{11305\}
999
Zone=361:S546_PERIMETER_\-_OPEN_OFFICE_\{11298\}
999
Zone=362:S586_\-_ELEVATOR_SHAFT_\{11291\}
999
Zone=363:S587_\-_ELEVATOR_3_\{11284\}
999
Zone=364:S595_\-_STAIR_2_\{11277\}
999
Zone=365:S597_\-_STAIR_4_\{11270\}
999
Zone=366:THERMAL_ZONE_1
999
Zone=367:THERMAL_ZONE_2
999
Zone=368:THERMAL_ZONE_3
999
Zone=369:THERMAL_ZONE_4
999
Zone=370:THERMAL_ZONE_5
999
Zone=371:THERMAL_ZONE_6
999
Zone=372:THERMAL_ZONE_7
999
Building Shading:EXTRUDED 13 \- CIB \(N&S SPACES\)_N215 \- CORRIDOR_WALL_725_WINDOW_726_SHADE_1_\{01083\}
  0
3DFACE
  8
Building Shading
 62
195
 10
       20.60000
 20
      -55.49000
 30
        8.70000
 11
       26.45000
 21
      -54.09000
 31
        8.70000
 12
       26.34000
 22
      -53.65000
 32
        8.70000
 13
       20.49000
 23
      -55.04000
 33
        8.70000
999
Building Shading:Mir-EXTRUDED 13 \- CIB \(N&S SPACES\)_N215 \- CORRIDOR_WALL_725_WINDOW_726_SHADE_1_\{01083\}
  0
3DFACE
  8
Building Shading
 62
195
 10
       20.49000
 20
      -55.04000
 30
        8.70000
 11
       26.34000
 21
      -53.65000
 31
        8.70000
 12
       26.45000
 22
      -54.09000
 32
        8.70000
 13
       20.60000
 23
      -55.49000
 33
        8.70000
999
Building Shading:EXTRUDED 13 \- CIB \(N&S SPACES\)_S221 EXTERIOR \- OPEN OFFICE_WALL_1460_WINDOW_1463_SHADE_1_\{02059\}
  0
3DFACE
  8
Building Shading
 62
195
 10
       37.84000
 20
     -100.53000
 30
        7.68000
 11
       45.06000
 21
     -101.05000
 31
        7.68000
 12
       45.09000
 22
     -100.59000
 32
        7.68000
 13
       37.87000
 23
     -100.08000
 33
        7.68000
999
Building Shading:Mir-EXTRUDED 13 \- CIB \(N&S SPACES\)_S221 EXTERIOR \- OPEN OFFICE_WALL_1460_WINDOW_1463_SHADE_1_\{02059\}
  0
3DFACE
  8
Building Shading
 62
195
 10
       37.87000
 20
     -100.08000
 30
        7.68000
 11
       45.09000
 21
     -100.59000
 31
        7.68000
 12
       45.06000
 22
     -101.05000
 32
        7.68000
 13
       37.84000
 23
     -100.53000
 33
        7.68000
999
Building Shading:EXTRUDED 13 \- CIB \(N&S SPACES\)_S221 EXTERIOR \- OPEN OFFICE_WALL_1465_WINDOW_1466_SHADE_1_\{02062\}
  0
3DFACE
  8
Building Shading
 62
195
 10
       30.52000
 20
      -99.75000
 30
        8.70000
 11
       37.72000
 21
     -100.52000
 31
        8.70000
 12
       37.76000
 22
     -100.07000
 32
        8.70000
 13
       30.57000
 23
      -99.29000
 33
        8.70000
999
Building Shading:Mir-EXTRUDED 13 \- CIB \(N&S SPACES\)_S221 EXTERIOR \- OPEN OFFICE_WALL_1465_WINDOW_1466_SHADE_1_\{02062\}
  0
3DFACE
  8
Building Shading
 62
195
 10
       30.57000
 20
      -99.29000
 30
        8.70000
 11
       37.76000
 21
     -100.07000
 31
        8.70000
 12
       37.72000
 22
     -100.52000
 32
        8.70000
 13
       30.52000
 23
      -99.75000
 33
        8.70000
999
Building Shading:EXTRUDED 13 \- CIB \(N&S SPACES\)_S221 EXTERIOR \- OPEN OFFICE_WALL_1465_WINDOW_1468_SHADE_1_\{02064\}
  0
3DFACE
  8
Building Shading
 62
195
 10
       30.52000
 20
      -99.75000
 30
        7.68000
 11
       37.72000
 21
     -100.52000
 31
        7.68000
 12
       37.76000
 22
     -100.07000
 32
        7.68000
 13
       30.57000
 23
      -99.29000
 33
        7.68000
999
Building Shading:Mir-EXTRUDED 13 \- CIB \(N&S SPACES\)_S221 EXTERIOR \- OPEN OFFICE_WALL_1465_WINDOW_1468_SHADE_1_\{02064\}
  0
3DFACE
  8
Building Shading
 62
195
 10
       30.57000
 20
      -99.29000
 30
        7.68000
 11
       37.76000
 21
     -100.07000
 31
        7.68000
 12
       37.72000
 22
     -100.52000
 32
        7.68000
 13
       30.52000
 23
      -99.75000
 33
        7.68000
999
Building Shading:EXTRUDED 13 \- CIB \(N&S SPACES\)_S214 \- FITNESS WAITING_WALL_1690_WINDOW_1691_SHADE_1_\{02382\}
  0
3DFACE
  8
Building Shading
 62
195
 10
       67.19000
 20
     -101.04000
 30
        8.70000
 11
       74.41000
 21
     -100.51000
 31
        8.70000
 12
       74.38000
 22
     -100.05000
 32
        8.70000
 13
       67.16000
 23
     -100.59000
 33
        8.70000
999
Building Shading:Mir-EXTRUDED 13 \- CIB \(N&S SPACES\)_S214 \- FITNESS WAITING_WALL_1690_WINDOW_1691_SHADE_1_\{02382\}
  0
3DFACE
  8
Building Shading
 62
195
 10
       67.16000
 20
     -100.59000
 30
        8.70000
 11
       74.38000
 21
     -100.05000
 31
        8.70000
 12
       74.41000
 22
     -100.51000
 32
        8.70000
 13
       67.19000
 23
     -101.04000
 33
        8.70000
999
Building Shading:EXTRUDED 13 \- CIB \(N&S SPACES\)_S214 \- FITNESS WAITING_WALL_1690_WINDOW_1693_SHADE_1_\{02384\}
  0
3DFACE
  8
Building Shading
 62
195
 10
       67.19000
 20
     -101.04000
 30
        7.68000
 11
       74.41000
 21
     -100.51000
 31
        7.68000
 12
       74.38000
 22
     -100.05000
 32
        7.68000
 13
       67.16000
 23
     -100.59000
 33
        7.68000
999
Building Shading:Mir-EXTRUDED 13 \- CIB \(N&S SPACES\)_S214 \- FITNESS WAITING_WALL_1690_WINDOW_1693_SHADE_1_\{02384\}
  0
3DFACE
  8
Building Shading
 62
195
 10
       67.16000
 20
     -100.59000
 30
        7.68000
 11
       74.38000
 21
     -100.05000
 31
        7.68000
 12
       74.41000
 22
     -100.51000
 32
        7.68000
 13
       67.19000
 23
     -101.04000
 33
        7.68000
999
Building Shading:EXTRUDED 13 \- CIB \(N&S SPACES\)_S214 \- FITNESS_WALL_1723_WINDOW_1724_SHADE_1_\{02422\}
  0
3DFACE
  8
Building Shading
 62
195
 10
       81.90000
 20
      -99.74000
 30
        8.70000
 11
       86.73000
 21
      -99.06000
 31
        8.70000
 12
       86.66000
 22
      -98.60000
 32
        8.70000
 13
       81.84000
 23
      -99.29000
 33
        8.70000
999
Building Shading:Mir-EXTRUDED 13 \- CIB \(N&S SPACES\)_S214 \- FITNESS_WALL_1723_WINDOW_1724_SHADE_1_\{02422\}
  0
3DFACE
  8
Building Shading
 62
195
 10
       81.84000
 20
      -99.29000
 30
        8.70000
 11
       86.66000
 21
      -98.60000
 31
        8.70000
 12
       86.73000
 22
      -99.06000
 32
        8.70000
 13
       81.90000
 23
      -99.74000
 33
        8.70000
999
Building Shading:EXTRUDED 13 \- CIB \(N&S SPACES\)_S214 \- FITNESS_WALL_1723_WINDOW_1726_SHADE_1_\{02424\}
  0
3DFACE
  8
Building Shading
 62
195
 10
       81.90000
 20
      -99.74000
 30
        7.68000
 11
       86.73000
 21
      -99.06000
 31
        7.68000
 12
       86.66000
 22
      -98.60000
 32
        7.68000
 13
       81.84000
 23
      -99.29000
 33
        7.68000
999
Building Shading:Mir-EXTRUDED 13 \- CIB \(N&S SPACES\)_S214 \- FITNESS_WALL_1723_WINDOW_1726_SHADE_1_\{02424\}
  0
3DFACE
  8
Building Shading
 62
195
 10
       81.84000
 20
      -99.29000
 30
        7.68000
 11
       86.66000
 21
      -98.60000
 31
        7.68000
 12
       86.73000
 22
      -99.06000
 32
        7.68000
 13
       81.90000
 23
      -99.74000
 33
        7.68000
999
Building Shading:EXTRUDED 13 \- CIB \(N&S SPACES\)_N301 \- CORRIDOR_WALL_2284_WINDOW_2285_SHADE_1_\{03148\}
  0
3DFACE
  8
Building Shading
 62
195
 10
       70.68000
 20
      -42.22000
 30
       13.27000
 11
       77.12000
 21
      -40.37000
 31
       13.27000
 12
       77.00000
 22
      -39.93000
 32
       13.27000
 13
       70.55000
 23
      -41.78000
 33
       13.27000
999
Building Shading:Mir-EXTRUDED 13 \- CIB \(N&S SPACES\)_N301 \- CORRIDOR_WALL_2284_WINDOW_2285_SHADE_1_\{03148\}
  0
3DFACE
  8
Building Shading
 62
195
 10
       70.55000
 20
      -41.78000
 30
       13.27000
 11
       77.00000
 21
      -39.93000
 31
       13.27000
 12
       77.12000
 22
      -40.37000
 32
       13.27000
 13
       70.68000
 23
      -42.22000
 33
       13.27000
999
Building Shading:EXTRUDED 13 \- CIB \(N&S SPACES\)_N301 \- CORRIDOR_WALL_2284_WINDOW_2287_SHADE_1_\{03150\}
  0
3DFACE
  8
Building Shading
 62
195
 10
       70.68000
 20
      -42.22000
 30
       12.26000
 11
       77.12000
 21
      -40.37000
 31
       12.26000
 12
       77.00000
 22
      -39.93000
 32
       12.26000
 13
       70.55000
 23
      -41.78000
 33
       12.26000
999
Building Shading:Mir-EXTRUDED 13 \- CIB \(N&S SPACES\)_N301 \- CORRIDOR_WALL_2284_WINDOW_2287_SHADE_1_\{03150\}
  0
3DFACE
  8
Building Shading
 62
195
 10
       70.55000
 20
      -41.78000
 30
       12.26000
 11
       77.00000
 21
      -39.93000
 31
       12.26000
 12
       77.12000
 22
      -40.37000
 32
       12.26000
 13
       70.68000
 23
      -42.22000
 33
       12.26000
999
Building Shading:EXTRUDED 13 \- CIB \(N&S SPACES\)_S314 \- OPEN OFFICE_WALL_2898_WINDOW_2899_SHADE_1_\{03980\}
  0
3DFACE
  8
Building Shading
 62
195
 10
       81.86000
 20
      -99.75000
 30
       13.27000
 11
       86.69000
 21
      -99.06000
 31
       13.27000
 12
       86.62000
 22
      -98.61000
 32
       13.27000
 13
       81.80000
 23
      -99.29000
 33
       13.27000
999
Building Shading:Mir-EXTRUDED 13 \- CIB \(N&S SPACES\)_S314 \- OPEN OFFICE_WALL_2898_WINDOW_2899_SHADE_1_\{03980\}
  0
3DFACE
  8
Building Shading
 62
195
 10
       81.80000
 20
      -99.29000
 30
       13.27000
 11
       86.62000
 21
      -98.61000
 31
       13.27000
 12
       86.69000
 22
      -99.06000
 32
       13.27000
 13
       81.86000
 23
      -99.75000
 33
       13.27000
999
Building Shading:EXTRUDED 13 \- CIB \(N&S SPACES\)_N215 \- CORRIDOR_WALL_725_WINDOW_728_SHADE_1_\{01085\}
  0
3DFACE
  8
Building Shading
 62
195
 10
       20.60000
 20
      -55.49000
 30
        7.68000
 11
       26.45000
 21
      -54.09000
 31
        7.68000
 12
       26.34000
 22
      -53.65000
 32
        7.68000
 13
       20.49000
 23
      -55.04000
 33
        7.68000
999
Building Shading:Mir-EXTRUDED 13 \- CIB \(N&S SPACES\)_N215 \- CORRIDOR_WALL_725_WINDOW_728_SHADE_1_\{01085\}
  0
3DFACE
  8
Building Shading
 62
195
 10
       20.49000
 20
      -55.04000
 30
        7.68000
 11
       26.34000
 21
      -53.65000
 31
        7.68000
 12
       26.45000
 22
      -54.09000
 32
        7.68000
 13
       20.60000
 23
      -55.49000
 33
        7.68000
999
Building Shading:EXTRUDED 13 \- CIB \(N&S SPACES\)_S314 \- OPEN OFFICE_WALL_2898_WINDOW_2901_SHADE_1_\{03982\}
  0
3DFACE
  8
Building Shading
 62
195
 10
       81.86000
 20
      -99.75000
 30
       12.26000
 11
       86.69000
 21
      -99.06000
 31
       12.26000
 12
       86.62000
 22
      -98.61000
 32
       12.26000
 13
       81.80000
 23
      -99.29000
 33
       12.26000
999
Building Shading:Mir-EXTRUDED 13 \- CIB \(N&S SPACES\)_S314 \- OPEN OFFICE_WALL_2898_WINDOW_2901_SHADE_1_\{03982\}
  0
3DFACE
  8
Building Shading
 62
195
 10
       81.80000
 20
      -99.29000
 30
       12.26000
 11
       86.62000
 21
      -98.61000
 31
       12.26000
 12
       86.69000
 22
      -99.06000
 32
       12.26000
 13
       81.86000
 23
      -99.75000
 33
       12.26000
999
Building Shading:EXTRUDED 13 \- CIB \(N&S SPACES\)_S333 \- OPEN OFFICE_WALL_2924_WINDOW_2925_SHADE_1_\{04017\}
  0
3DFACE
  8
Building Shading
 62
195
 10
       25.51000
 20
      -99.05000
 30
       13.27000
 11
       30.34000
 21
      -99.73000
 31
       13.27000
 12
       30.41000
 22
      -99.27000
 32
       13.27000
 13
       25.58000
 23
      -98.60000
 33
       13.27000
999
Building Shading:Mir-EXTRUDED 13 \- CIB \(N&S SPACES\)_S333 \- OPEN OFFICE_WALL_2924_WINDOW_2925_SHADE_1_\{04017\}
  0
3DFACE
  8
Building Shading
 62
195
 10
       25.58000
 20
      -98.60000
 30
       13.27000
 11
       30.41000
 21
      -99.27000
 31
       13.27000
 12
       30.34000
 22
      -99.73000
 32
       13.27000
 13
       25.51000
 23
      -99.05000
 33
       13.27000
999
Building Shading:EXTRUDED 13 \- CIB \(N&S SPACES\)_S333 \- OPEN OFFICE_WALL_2924_WINDOW_2927_SHADE_1_\{04019\}
  0
3DFACE
  8
Building Shading
 62
195
 10
       25.51000
 20
      -99.05000
 30
       12.26000
 11
       30.34000
 21
      -99.73000
 31
       12.26000
 12
       30.41000
 22
      -99.27000
 32
       12.26000
 13
       25.58000
 23
      -98.60000
 33
       12.26000
999
Building Shading:Mir-EXTRUDED 13 \- CIB \(N&S SPACES\)_S333 \- OPEN OFFICE_WALL_2924_WINDOW_2927_SHADE_1_\{04019\}
  0
3DFACE
  8
Building Shading
 62
195
 10
       25.58000
 20
      -98.60000
 30
       12.26000
 11
       30.41000
 21
      -99.27000
 31
       12.26000
 12
       30.34000
 22
      -99.73000
 32
       12.26000
 13
       25.51000
 23
      -99.05000
 33
       12.26000
999
Building Shading:EXTRUDED 13 \- CIB \(N&S SPACES\)_S317 PERIMETER \- OPEN OFFICE_WALL_2990_WINDOW_2991_SHADE_1_\{04107\}
  0
3DFACE
  8
Building Shading
 62
195
 10
       74.53000
 20
     -100.50000
 30
       13.27000
 11
       81.73000
 21
      -99.76000
 31
       13.27000
 12
       81.68000
 22
      -99.31000
 32
       13.27000
 13
       74.48000
 23
     -100.04000
 33
       13.27000
999
Building Shading:Mir-EXTRUDED 13 \- CIB \(N&S SPACES\)_S317 PERIMETER \- OPEN OFFICE_WALL_2990_WINDOW_2991_SHADE_1_\{04107\}
  0
3DFACE
  8
Building Shading
 62
195
 10
       74.48000
 20
     -100.04000
 30
       13.27000
 11
       81.68000
 21
      -99.31000
 31
       13.27000
 12
       81.73000
 22
      -99.76000
 32
       13.27000
 13
       74.53000
 23
     -100.50000
 33
       13.27000
999
Building Shading:EXTRUDED 13 \- CIB \(N&S SPACES\)_S317 PERIMETER \- OPEN OFFICE_WALL_2990_WINDOW_2993_SHADE_1_\{04109\}
  0
3DFACE
  8
Building Shading
 62
195
 10
       74.53000
 20
     -100.50000
 30
       12.26000
 11
       81.73000
 21
      -99.76000
 31
       12.26000
 12
       81.68000
 22
      -99.31000
 32
       12.26000
 13
       74.48000
 23
     -100.04000
 33
       12.26000
999
Building Shading:Mir-EXTRUDED 13 \- CIB \(N&S SPACES\)_S317 PERIMETER \- OPEN OFFICE_WALL_2990_WINDOW_2993_SHADE_1_\{04109\}
  0
3DFACE
  8
Building Shading
 62
195
 10
       74.48000
 20
     -100.04000
 30
       12.26000
 11
       81.68000
 21
      -99.31000
 31
       12.26000
 12
       81.73000
 22
      -99.76000
 32
       12.26000
 13
       74.53000
 23
     -100.50000
 33
       12.26000
999
Building Shading:EXTRUDED 13 \- CIB \(N&S SPACES\)_S317 PERIMETER \- OPEN OFFICE_WALL_2995_WINDOW_2996_SHADE_1_\{04112\}
  0
3DFACE
  8
Building Shading
 62
195
 10
       67.20000
 20
     -101.04000
 30
       13.27000
 11
       74.42000
 21
     -100.51000
 31
       13.27000
 12
       74.38000
 22
     -100.05000
 32
       13.27000
 13
       67.16000
 23
     -100.59000
 33
       13.27000
999
Building Shading:Mir-EXTRUDED 13 \- CIB \(N&S SPACES\)_S317 PERIMETER \- OPEN OFFICE_WALL_2995_WINDOW_2996_SHADE_1_\{04112\}
  0
3DFACE
  8
Building Shading
 62
195
 10
       67.16000
 20
     -100.59000
 30
       13.27000
 11
       74.38000
 21
     -100.05000
 31
       13.27000
 12
       74.42000
 22
     -100.51000
 32
       13.27000
 13
       67.20000
 23
     -101.04000
 33
       13.27000
999
Building Shading:EXTRUDED 13 \- CIB \(N&S SPACES\)_S317 PERIMETER \- OPEN OFFICE_WALL_2995_WINDOW_2998_SHADE_1_\{04114\}
  0
3DFACE
  8
Building Shading
 62
195
 10
       67.20000
 20
     -101.04000
 30
       12.26000
 11
       74.42000
 21
     -100.51000
 31
       12.26000
 12
       74.38000
 22
     -100.05000
 32
       12.26000
 13
       67.16000
 23
     -100.59000
 33
       12.26000
999
Building Shading:Mir-EXTRUDED 13 \- CIB \(N&S SPACES\)_S317 PERIMETER \- OPEN OFFICE_WALL_2995_WINDOW_2998_SHADE_1_\{04114\}
  0
3DFACE
  8
Building Shading
 62
195
 10
       67.16000
 20
     -100.59000
 30
       12.26000
 11
       74.38000
 21
     -100.05000
 31
       12.26000
 12
       74.42000
 22
     -100.51000
 32
       12.26000
 13
       67.20000
 23
     -101.04000
 33
       12.26000
999
Building Shading:EXTRUDED 13 \- CIB \(N&S SPACES\)_S317 PERIMETER \- OPEN OFFICE_WALL_3000_WINDOW_3001_SHADE_1_\{04117\}
  0
3DFACE
  8
Building Shading
 62
195
 10
       59.85000
 20
     -101.27000
 30
       13.27000
 11
       67.06000
 21
     -101.05000
 31
       13.27000
 12
       67.05000
 22
     -100.60000
 32
       13.27000
 13
       59.84000
 23
     -100.82000
 33
       13.27000
999
Building Shading:Mir-EXTRUDED 13 \- CIB \(N&S SPACES\)_S317 PERIMETER \- OPEN OFFICE_WALL_3000_WINDOW_3001_SHADE_1_\{04117\}
  0
3DFACE
  8
Building Shading
 62
195
 10
       59.84000
 20
     -100.82000
 30
       13.27000
 11
       67.05000
 21
     -100.60000
 31
       13.27000
 12
       67.06000
 22
     -101.05000
 32
       13.27000
 13
       59.85000
 23
     -101.27000
 33
       13.27000
999
Building Shading:EXTRUDED 13 \- CIB \(N&S SPACES\)_S317 PERIMETER \- OPEN OFFICE_WALL_3000_WINDOW_3003_SHADE_1_\{04119\}
  0
3DFACE
  8
Building Shading
 62
195
 10
       59.85000
 20
     -101.27000
 30
       12.26000
 11
       67.06000
 21
     -101.05000
 31
       12.26000
 12
       67.05000
 22
     -100.60000
 32
       12.26000
 13
       59.84000
 23
     -100.82000
 33
       12.26000
999
Building Shading:Mir-EXTRUDED 13 \- CIB \(N&S SPACES\)_S317 PERIMETER \- OPEN OFFICE_WALL_3000_WINDOW_3003_SHADE_1_\{04119\}
  0
3DFACE
  8
Building Shading
 62
195
 10
       59.84000
 20
     -100.82000
 30
       12.26000
 11
       67.05000
 21
     -100.60000
 31
       12.26000
 12
       67.06000
 22
     -101.05000
 32
       12.26000
 13
       59.85000
 23
     -101.27000
 33
       12.26000
999
Building Shading:EXTRUDED 13 \- CIB \(N&S SPACES\)_S317 PERIMETER 1 \- OPEN OFFICE_WALL_3049_WINDOW_3050_SHADE_1_\{04185\}
  0
3DFACE
  8
Building Shading
 62
195
 10
       45.16000
 20
     -101.06000
 30
       13.27000
 11
       52.40000
 21
     -101.29000
 31
       13.27000
 12
       52.41000
 22
     -100.84000
 32
       13.27000
 13
       45.18000
 23
     -100.60000
 33
       13.27000
999
Building Shading:Mir-EXTRUDED 13 \- CIB \(N&S SPACES\)_S317 PERIMETER 1 \- OPEN OFFICE_WALL_3049_WINDOW_3050_SHADE_1_\{04185\}
  0
3DFACE
  8
Building Shading
 62
195
 10
       45.18000
 20
     -100.60000
 30
       13.27000
 11
       52.41000
 21
     -100.84000
 31
       13.27000
 12
       52.40000
 22
     -101.29000
 32
       13.27000
 13
       45.16000
 23
     -101.06000
 33
       13.27000
999
Building Shading:EXTRUDED 13 \- CIB \(N&S SPACES\)_N230 \- CUSTEXP \- VRF4_WALL_829_WINDOW_830_SHADE_1_\{01224\}
  0
3DFACE
  8
Building Shading
 62
195
 10
       84.22000
 20
      -38.08000
 30
        8.70000
 11
       88.80000
 21
      -36.40000
 31
        8.70000
 12
       88.64000
 22
      -35.97000
 32
        8.70000
 13
       84.06000
 23
      -37.65000
 33
        8.70000
999
Building Shading:Mir-EXTRUDED 13 \- CIB \(N&S SPACES\)_N230 \- CUSTEXP \- VRF4_WALL_829_WINDOW_830_SHADE_1_\{01224\}
  0
3DFACE
  8
Building Shading
 62
195
 10
       84.06000
 20
      -37.65000
 30
        8.70000
 11
       88.64000
 21
      -35.97000
 31
        8.70000
 12
       88.80000
 22
      -36.40000
 32
        8.70000
 13
       84.22000
 23
      -38.08000
 33
        8.70000
999
Building Shading:EXTRUDED 13 \- CIB \(N&S SPACES\)_S317 PERIMETER 1 \- OPEN OFFICE_WALL_3049_WINDOW_3052_SHADE_1_\{04187\}
  0
3DFACE
  8
Building Shading
 62
195
 10
       45.16000
 20
     -101.06000
 30
       12.26000
 11
       52.40000
 21
     -101.29000
 31
       12.26000
 12
       52.41000
 22
     -100.84000
 32
       12.26000
 13
       45.18000
 23
     -100.60000
 33
       12.26000
999
Building Shading:Mir-EXTRUDED 13 \- CIB \(N&S SPACES\)_S317 PERIMETER 1 \- OPEN OFFICE_WALL_3049_WINDOW_3052_SHADE_1_\{04187\}
  0
3DFACE
  8
Building Shading
 62
195
 10
       45.18000
 20
     -100.60000
 30
       12.26000
 11
       52.41000
 21
     -100.84000
 31
       12.26000
 12
       52.40000
 22
     -101.29000
 32
       12.26000
 13
       45.16000
 23
     -101.06000
 33
       12.26000
999
Building Shading:EXTRUDED 13 \- CIB \(N&S SPACES\)_S317 PERIMETER 1 \- OPEN OFFICE_WALL_3054_WINDOW_3055_SHADE_1_\{04190\}
  0
3DFACE
  8
Building Shading
 62
195
 10
       37.83000
 20
     -100.53000
 30
       13.27000
 11
       45.05000
 21
     -101.05000
 31
       13.27000
 12
       45.09000
 22
     -100.59000
 32
       13.27000
 13
       37.87000
 23
     -100.08000
 33
       13.27000
999
Building Shading:Mir-EXTRUDED 13 \- CIB \(N&S SPACES\)_S317 PERIMETER 1 \- OPEN OFFICE_WALL_3054_WINDOW_3055_SHADE_1_\{04190\}
  0
3DFACE
  8
Building Shading
 62
195
 10
       37.87000
 20
     -100.08000
 30
       13.27000
 11
       45.09000
 21
     -100.59000
 31
       13.27000
 12
       45.05000
 22
     -101.05000
 32
       13.27000
 13
       37.83000
 23
     -100.53000
 33
       13.27000
999
Building Shading:EXTRUDED 13 \- CIB \(N&S SPACES\)_S317 PERIMETER 1 \- OPEN OFFICE_WALL_3054_WINDOW_3057_SHADE_1_\{04192\}
  0
3DFACE
  8
Building Shading
 62
195
 10
       37.83000
 20
     -100.53000
 30
       12.26000
 11
       45.05000
 21
     -101.05000
 31
       12.26000
 12
       45.09000
 22
     -100.59000
 32
       12.26000
 13
       37.87000
 23
     -100.08000
 33
       12.26000
999
Building Shading:Mir-EXTRUDED 13 \- CIB \(N&S SPACES\)_S317 PERIMETER 1 \- OPEN OFFICE_WALL_3054_WINDOW_3057_SHADE_1_\{04192\}
  0
3DFACE
  8
Building Shading
 62
195
 10
       37.87000
 20
     -100.08000
 30
       12.26000
 11
       45.09000
 21
     -100.59000
 31
       12.26000
 12
       45.05000
 22
     -101.05000
 32
       12.26000
 13
       37.83000
 23
     -100.53000
 33
       12.26000
999
Building Shading:EXTRUDED 13 \- CIB \(N&S SPACES\)_S317 PERIMETER 1 \- OPEN OFFICE_WALL_3059_WINDOW_3060_SHADE_1_\{04195\}
  0
3DFACE
  8
Building Shading
 62
195
 10
       30.51000
 20
      -99.75000
 30
       13.27000
 11
       37.71000
 21
     -100.52000
 31
       13.27000
 12
       37.76000
 22
     -100.06000
 32
       13.27000
 13
       30.56000
 23
      -99.29000
 33
       13.27000
999
Building Shading:Mir-EXTRUDED 13 \- CIB \(N&S SPACES\)_S317 PERIMETER 1 \- OPEN OFFICE_WALL_3059_WINDOW_3060_SHADE_1_\{04195\}
  0
3DFACE
  8
Building Shading
 62
195
 10
       30.56000
 20
      -99.29000
 30
       13.27000
 11
       37.76000
 21
     -100.06000
 31
       13.27000
 12
       37.71000
 22
     -100.52000
 32
       13.27000
 13
       30.51000
 23
      -99.75000
 33
       13.27000
999
Building Shading:EXTRUDED 13 \- CIB \(N&S SPACES\)_S317 PERIMETER 1 \- OPEN OFFICE_WALL_3059_WINDOW_3062_SHADE_1_\{04197\}
  0
3DFACE
  8
Building Shading
 62
195
 10
       30.51000
 20
      -99.75000
 30
       12.26000
 11
       37.71000
 21
     -100.52000
 31
       12.26000
 12
       37.76000
 22
     -100.06000
 32
       12.26000
 13
       30.56000
 23
      -99.29000
 33
       12.26000
999
Building Shading:Mir-EXTRUDED 13 \- CIB \(N&S SPACES\)_S317 PERIMETER 1 \- OPEN OFFICE_WALL_3059_WINDOW_3062_SHADE_1_\{04197\}
  0
3DFACE
  8
Building Shading
 62
195
 10
       30.56000
 20
      -99.29000
 30
       12.26000
 11
       37.76000
 21
     -100.06000
 31
       12.26000
 12
       37.71000
 22
     -100.52000
 32
       12.26000
 13
       30.51000
 23
      -99.75000
 33
       12.26000
999
Building Shading:EXTRUDED 13 \- CIB \(N&S SPACES\)_N401 \- CORRIDOR_WALL_3471_WINDOW_3472_SHADE_1_\{04727\}
  0
3DFACE
  8
Building Shading
 62
195
 10
       70.67000
 20
      -42.22000
 30
       17.84000
 11
       77.12000
 21
      -40.37000
 31
       17.84000
 12
       76.99000
 22
      -39.93000
 32
       17.84000
 13
       70.55000
 23
      -41.79000
 33
       17.84000
999
Building Shading:Mir-EXTRUDED 13 \- CIB \(N&S SPACES\)_N401 \- CORRIDOR_WALL_3471_WINDOW_3472_SHADE_1_\{04727\}
  0
3DFACE
  8
Building Shading
 62
195
 10
       70.55000
 20
      -41.79000
 30
       17.84000
 11
       76.99000
 21
      -39.93000
 31
       17.84000
 12
       77.12000
 22
      -40.37000
 32
       17.84000
 13
       70.67000
 23
      -42.22000
 33
       17.84000
999
Building Shading:EXTRUDED 13 \- CIB \(N&S SPACES\)_N401 \- CORRIDOR_WALL_3471_WINDOW_3474_SHADE_1_\{04729\}
  0
3DFACE
  8
Building Shading
 62
195
 10
       70.67000
 20
      -42.22000
 30
       16.83000
 11
       77.12000
 21
      -40.37000
 31
       16.83000
 12
       76.99000
 22
      -39.93000
 32
       16.83000
 13
       70.55000
 23
      -41.79000
 33
       16.83000
999
Building Shading:Mir-EXTRUDED 13 \- CIB \(N&S SPACES\)_N401 \- CORRIDOR_WALL_3471_WINDOW_3474_SHADE_1_\{04729\}
  0
3DFACE
  8
Building Shading
 62
195
 10
       70.55000
 20
      -41.79000
 30
       16.83000
 11
       76.99000
 21
      -39.93000
 31
       16.83000
 12
       77.12000
 22
      -40.37000
 32
       16.83000
 13
       70.67000
 23
      -42.22000
 33
       16.83000
999
Building Shading:EXTRUDED 13 \- CIB \(N&S SPACES\)_S433 \- CONFERENCE_WALL_3913_WINDOW_3914_SHADE_1_\{05322\}
  0
3DFACE
  8
Building Shading
 62
195
 10
       25.46000
 20
      -99.05000
 30
       17.84000
 11
       26.66000
 21
      -99.21000
 31
       17.84000
 12
       26.73000
 22
      -98.76000
 32
       17.84000
 13
       25.52000
 23
      -98.59000
 33
       17.84000
999
Building Shading:Mir-EXTRUDED 13 \- CIB \(N&S SPACES\)_S433 \- CONFERENCE_WALL_3913_WINDOW_3914_SHADE_1_\{05322\}
  0
3DFACE
  8
Building Shading
 62
195
 10
       25.52000
 20
      -98.59000
 30
       17.84000
 11
       26.73000
 21
      -98.76000
 31
       17.84000
 12
       26.66000
 22
      -99.21000
 32
       17.84000
 13
       25.46000
 23
      -99.05000
 33
       17.84000
999
Building Shading:EXTRUDED 13 \- CIB \(N&S SPACES\)_S433 \- CONFERENCE_WALL_3913_WINDOW_3916_SHADE_1_\{05324\}
  0
3DFACE
  8
Building Shading
 62
195
 10
       25.46000
 20
      -99.05000
 30
       16.83000
 11
       26.66000
 21
      -99.21000
 31
       16.83000
 12
       26.73000
 22
      -98.76000
 32
       16.83000
 13
       25.52000
 23
      -98.59000
 33
       16.83000
999
Building Shading:Mir-EXTRUDED 13 \- CIB \(N&S SPACES\)_S433 \- CONFERENCE_WALL_3913_WINDOW_3916_SHADE_1_\{05324\}
  0
3DFACE
  8
Building Shading
 62
195
 10
       25.52000
 20
      -98.59000
 30
       16.83000
 11
       26.73000
 21
      -98.76000
 31
       16.83000
 12
       26.66000
 22
      -99.21000
 32
       16.83000
 13
       25.46000
 23
      -99.05000
 33
       16.83000
999
Building Shading:EXTRUDED 13 \- CIB \(N&S SPACES\)_S417 \- OFFICE_WALL_4351_WINDOW_4352_SHADE_1_\{05864\}
  0
3DFACE
  8
Building Shading
 62
195
 10
       85.60000
 20
      -99.22000
 30
       17.84000
 11
       86.81000
 21
      -99.04000
 31
       17.84000
 12
       86.74000
 22
      -98.59000
 32
       17.84000
 13
       85.54000
 23
      -98.76000
 33
       17.84000
999
Building Shading:Mir-EXTRUDED 13 \- CIB \(N&S SPACES\)_S417 \- OFFICE_WALL_4351_WINDOW_4352_SHADE_1_\{05864\}
  0
3DFACE
  8
Building Shading
 62
195
 10
       85.54000
 20
      -98.76000
 30
       17.84000
 11
       86.74000
 21
      -98.59000
 31
       17.84000
 12
       86.81000
 22
      -99.04000
 32
       17.84000
 13
       85.60000
 23
      -99.22000
 33
       17.84000
999
Building Shading:EXTRUDED 13 \- CIB \(N&S SPACES\)_N230 \- CUSTEXP \- VRF4_WALL_829_WINDOW_832_SHADE_1_\{01226\}
  0
3DFACE
  8
Building Shading
 62
195
 10
       84.22000
 20
      -38.08000
 30
        7.68000
 11
       88.80000
 21
      -36.40000
 31
        7.68000
 12
       88.64000
 22
      -35.97000
 32
        7.68000
 13
       84.06000
 23
      -37.65000
 33
        7.68000
999
Building Shading:Mir-EXTRUDED 13 \- CIB \(N&S SPACES\)_N230 \- CUSTEXP \- VRF4_WALL_829_WINDOW_832_SHADE_1_\{01226\}
  0
3DFACE
  8
Building Shading
 62
195
 10
       84.06000
 20
      -37.65000
 30
        7.68000
 11
       88.64000
 21
      -35.97000
 31
        7.68000
 12
       88.80000
 22
      -36.40000
 32
        7.68000
 13
       84.22000
 23
      -38.08000
 33
        7.68000
999
Building Shading:EXTRUDED 13 \- CIB \(N&S SPACES\)_S417 \- OFFICE_WALL_4351_WINDOW_4354_SHADE_1_\{05866\}
  0
3DFACE
  8
Building Shading
 62
195
 10
       85.60000
 20
      -99.22000
 30
       16.83000
 11
       86.81000
 21
      -99.04000
 31
       16.83000
 12
       86.74000
 22
      -98.59000
 32
       16.83000
 13
       85.54000
 23
      -98.76000
 33
       16.83000
999
Building Shading:Mir-EXTRUDED 13 \- CIB \(N&S SPACES\)_S417 \- OFFICE_WALL_4351_WINDOW_4354_SHADE_1_\{05866\}
  0
3DFACE
  8
Building Shading
 62
195
 10
       85.54000
 20
      -98.76000
 30
       16.83000
 11
       86.74000
 21
      -98.59000
 31
       16.83000
 12
       86.81000
 22
      -99.04000
 32
       16.83000
 13
       85.60000
 23
      -99.22000
 33
       16.83000
999
Building Shading:EXTRUDED 13 \- CIB \(N&S SPACES\)_S418B \- OPEN OFFICE_WALL_4438_WINDOW_4439_SHADE_1_\{05966\}
  0
3DFACE
  8
Building Shading
 62
195
 10
       81.88000
 20
      -99.74000
 30
       17.84000
 11
       85.50000
 21
      -99.23000
 31
       17.84000
 12
       85.44000
 22
      -98.78000
 32
       17.84000
 13
       81.81000
 23
      -99.29000
 33
       17.84000
999
Building Shading:Mir-EXTRUDED 13 \- CIB \(N&S SPACES\)_S418B \- OPEN OFFICE_WALL_4438_WINDOW_4439_SHADE_1_\{05966\}
  0
3DFACE
  8
Building Shading
 62
195
 10
       81.81000
 20
      -99.29000
 30
       17.84000
 11
       85.44000
 21
      -98.78000
 31
       17.84000
 12
       85.50000
 22
      -99.23000
 32
       17.84000
 13
       81.88000
 23
      -99.74000
 33
       17.84000
999
Building Shading:EXTRUDED 13 \- CIB \(N&S SPACES\)_S418B \- OPEN OFFICE_WALL_4438_WINDOW_4441_SHADE_1_\{05968\}
  0
3DFACE
  8
Building Shading
 62
195
 10
       81.88000
 20
      -99.74000
 30
       16.83000
 11
       85.50000
 21
      -99.23000
 31
       16.83000
 12
       85.44000
 22
      -98.78000
 32
       16.83000
 13
       81.81000
 23
      -99.29000
 33
       16.83000
999
Building Shading:Mir-EXTRUDED 13 \- CIB \(N&S SPACES\)_S418B \- OPEN OFFICE_WALL_4438_WINDOW_4441_SHADE_1_\{05968\}
  0
3DFACE
  8
Building Shading
 62
195
 10
       81.81000
 20
      -99.29000
 30
       16.83000
 11
       85.44000
 21
      -98.78000
 31
       16.83000
 12
       85.50000
 22
      -99.23000
 32
       16.83000
 13
       81.88000
 23
      -99.74000
 33
       16.83000
999
Building Shading:EXTRUDED 13 \- CIB \(N&S SPACES\)_S418B \- OPEN OFFICE_WALL_4443_WINDOW_4444_SHADE_1_\{05971\}
  0
3DFACE
  8
Building Shading
 62
195
 10
       74.53000
 20
     -100.50000
 30
       17.84000
 11
       81.74000
 21
      -99.76000
 31
       17.84000
 12
       81.69000
 22
      -99.31000
 32
       17.84000
 13
       74.49000
 23
     -100.04000
 33
       17.84000
999
Building Shading:Mir-EXTRUDED 13 \- CIB \(N&S SPACES\)_S418B \- OPEN OFFICE_WALL_4443_WINDOW_4444_SHADE_1_\{05971\}
  0
3DFACE
  8
Building Shading
 62
195
 10
       74.49000
 20
     -100.04000
 30
       17.84000
 11
       81.69000
 21
      -99.31000
 31
       17.84000
 12
       81.74000
 22
      -99.76000
 32
       17.84000
 13
       74.53000
 23
     -100.50000
 33
       17.84000
999
Building Shading:EXTRUDED 13 \- CIB \(N&S SPACES\)_S418B \- OPEN OFFICE_WALL_4443_WINDOW_4446_SHADE_1_\{05973\}
  0
3DFACE
  8
Building Shading
 62
195
 10
       74.53000
 20
     -100.50000
 30
       16.83000
 11
       81.74000
 21
      -99.76000
 31
       16.83000
 12
       81.69000
 22
      -99.31000
 32
       16.83000
 13
       74.49000
 23
     -100.04000
 33
       16.83000
999
Building Shading:Mir-EXTRUDED 13 \- CIB \(N&S SPACES\)_S418B \- OPEN OFFICE_WALL_4443_WINDOW_4446_SHADE_1_\{05973\}
  0
3DFACE
  8
Building Shading
 62
195
 10
       74.49000
 20
     -100.04000
 30
       16.83000
 11
       81.69000
 21
      -99.31000
 31
       16.83000
 12
       81.74000
 22
      -99.76000
 32
       16.83000
 13
       74.53000
 23
     -100.50000
 33
       16.83000
999
Building Shading:EXTRUDED 13 \- CIB \(N&S SPACES\)_S418B \- OPEN OFFICE_WALL_4448_WINDOW_4449_SHADE_1_\{05976\}
  0
3DFACE
  8
Building Shading
 62
195
 10
       67.17000
 20
     -101.05000
 30
       17.84000
 11
       74.39000
 21
     -100.51000
 31
       17.84000
 12
       74.35000
 22
     -100.06000
 32
       17.84000
 13
       67.13000
 23
     -100.59000
 33
       17.84000
999
Building Shading:Mir-EXTRUDED 13 \- CIB \(N&S SPACES\)_S418B \- OPEN OFFICE_WALL_4448_WINDOW_4449_SHADE_1_\{05976\}
  0
3DFACE
  8
Building Shading
 62
195
 10
       67.13000
 20
     -100.59000
 30
       17.84000
 11
       74.35000
 21
     -100.06000
 31
       17.84000
 12
       74.39000
 22
     -100.51000
 32
       17.84000
 13
       67.17000
 23
     -101.05000
 33
       17.84000
999
Building Shading:EXTRUDED 13 \- CIB \(N&S SPACES\)_S418B \- OPEN OFFICE_WALL_4448_WINDOW_4451_SHADE_1_\{05978\}
  0
3DFACE
  8
Building Shading
 62
195
 10
       67.17000
 20
     -101.05000
 30
       16.83000
 11
       74.39000
 21
     -100.51000
 31
       16.83000
 12
       74.35000
 22
     -100.06000
 32
       16.83000
 13
       67.13000
 23
     -100.59000
 33
       16.83000
999
Building Shading:Mir-EXTRUDED 13 \- CIB \(N&S SPACES\)_S418B \- OPEN OFFICE_WALL_4448_WINDOW_4451_SHADE_1_\{05978\}
  0
3DFACE
  8
Building Shading
 62
195
 10
       67.13000
 20
     -100.59000
 30
       16.83000
 11
       74.35000
 21
     -100.06000
 31
       16.83000
 12
       74.39000
 22
     -100.51000
 32
       16.83000
 13
       67.17000
 23
     -101.05000
 33
       16.83000
999
Building Shading:EXTRUDED 13 \- CIB \(N&S SPACES\)_S418B \- OPEN OFFICE_WALL_4453_WINDOW_4454_SHADE_1_\{05981\}
  0
3DFACE
  8
Building Shading
 62
195
 10
       59.85000
 20
     -101.27000
 30
       17.84000
 11
       67.06000
 21
     -101.05000
 31
       17.84000
 12
       67.05000
 22
     -100.60000
 32
       17.84000
 13
       59.84000
 23
     -100.82000
 33
       17.84000
999
Building Shading:Mir-EXTRUDED 13 \- CIB \(N&S SPACES\)_S418B \- OPEN OFFICE_WALL_4453_WINDOW_4454_SHADE_1_\{05981\}
  0
3DFACE
  8
Building Shading
 62
195
 10
       59.84000
 20
     -100.82000
 30
       17.84000
 11
       67.05000
 21
     -100.60000
 31
       17.84000
 12
       67.06000
 22
     -101.05000
 32
       17.84000
 13
       59.85000
 23
     -101.27000
 33
       17.84000
999
Building Shading:EXTRUDED 13 \- CIB \(N&S SPACES\)_S418B \- OPEN OFFICE_WALL_4453_WINDOW_4456_SHADE_1_\{05983\}
  0
3DFACE
  8
Building Shading
 62
195
 10
       59.85000
 20
     -101.27000
 30
       16.83000
 11
       67.06000
 21
     -101.05000
 31
       16.83000
 12
       67.05000
 22
     -100.60000
 32
       16.83000
 13
       59.84000
 23
     -100.82000
 33
       16.83000
999
Building Shading:Mir-EXTRUDED 13 \- CIB \(N&S SPACES\)_S418B \- OPEN OFFICE_WALL_4453_WINDOW_4456_SHADE_1_\{05983\}
  0
3DFACE
  8
Building Shading
 62
195
 10
       59.84000
 20
     -100.82000
 30
       16.83000
 11
       67.05000
 21
     -100.60000
 31
       16.83000
 12
       67.06000
 22
     -101.05000
 32
       16.83000
 13
       59.85000
 23
     -101.27000
 33
       16.83000
999
Building Shading:EXTRUDED 13 \- CIB \(N&S SPACES\)_S418A \- OPEN OFFICE_WALL_4482_WINDOW_4483_SHADE_1_\{06022\}
  0
3DFACE
  8
Building Shading
 62
195
 10
       52.52000
 20
     -101.30000
 30
       17.84000
 11
       59.76000
 21
     -101.28000
 31
       17.84000
 12
       59.75000
 22
     -100.82000
 32
       17.84000
 13
       52.52000
 23
     -100.84000
 33
       17.84000
999
Building Shading:Mir-EXTRUDED 13 \- CIB \(N&S SPACES\)_S418A \- OPEN OFFICE_WALL_4482_WINDOW_4483_SHADE_1_\{06022\}
  0
3DFACE
  8
Building Shading
 62
195
 10
       52.52000
 20
     -100.84000
 30
       17.84000
 11
       59.75000
 21
     -100.82000
 31
       17.84000
 12
       59.76000
 22
     -101.28000
 32
       17.84000
 13
       52.52000
 23
     -101.30000
 33
       17.84000
999
Building Shading:EXTRUDED 13 \- CIB \(N&S SPACES\)_N201 \- CORRIDOR_WALL_954_WINDOW_955_SHADE_1_\{01391\}
  0
3DFACE
  8
Building Shading
 62
195
 10
       70.66000
 20
      -42.23000
 30
        8.70000
 11
       77.10000
 21
      -40.37000
 31
        8.70000
 12
       76.97000
 22
      -39.94000
 32
        8.70000
 13
       70.53000
 23
      -41.79000
 33
        8.70000
999
Building Shading:Mir-EXTRUDED 13 \- CIB \(N&S SPACES\)_N201 \- CORRIDOR_WALL_954_WINDOW_955_SHADE_1_\{01391\}
  0
3DFACE
  8
Building Shading
 62
195
 10
       70.53000
 20
      -41.79000
 30
        8.70000
 11
       76.97000
 21
      -39.94000
 31
        8.70000
 12
       77.10000
 22
      -40.37000
 32
        8.70000
 13
       70.66000
 23
      -42.23000
 33
        8.70000
999
Building Shading:EXTRUDED 13 \- CIB \(N&S SPACES\)_S418A \- OPEN OFFICE_WALL_4482_WINDOW_4485_SHADE_1_\{06024\}
  0
3DFACE
  8
Building Shading
 62
195
 10
       52.52000
 20
     -101.30000
 30
       16.83000
 11
       59.76000
 21
     -101.28000
 31
       16.83000
 12
       59.75000
 22
     -100.82000
 32
       16.83000
 13
       52.52000
 23
     -100.84000
 33
       16.83000
999
Building Shading:Mir-EXTRUDED 13 \- CIB \(N&S SPACES\)_S418A \- OPEN OFFICE_WALL_4482_WINDOW_4485_SHADE_1_\{06024\}
  0
3DFACE
  8
Building Shading
 62
195
 10
       52.52000
 20
     -100.84000
 30
       16.83000
 11
       59.75000
 21
     -100.82000
 31
       16.83000
 12
       59.76000
 22
     -101.28000
 32
       16.83000
 13
       52.52000
 23
     -101.30000
 33
       16.83000
999
Building Shading:EXTRUDED 13 \- CIB \(N&S SPACES\)_S418A \- OPEN OFFICE_WALL_4487_WINDOW_4488_SHADE_1_\{06027\}
  0
3DFACE
  8
Building Shading
 62
195
 10
       45.16000
 20
     -101.06000
 30
       17.84000
 11
       52.39000
 21
     -101.29000
 31
       17.84000
 12
       52.41000
 22
     -100.84000
 32
       17.84000
 13
       45.17000
 23
     -100.60000
 33
       17.84000
999
Building Shading:Mir-EXTRUDED 13 \- CIB \(N&S SPACES\)_S418A \- OPEN OFFICE_WALL_4487_WINDOW_4488_SHADE_1_\{06027\}
  0
3DFACE
  8
Building Shading
 62
195
 10
       45.17000
 20
     -100.60000
 30
       17.84000
 11
       52.41000
 21
     -100.84000
 31
       17.84000
 12
       52.39000
 22
     -101.29000
 32
       17.84000
 13
       45.16000
 23
     -101.06000
 33
       17.84000
999
Building Shading:EXTRUDED 13 \- CIB \(N&S SPACES\)_S418A \- OPEN OFFICE_WALL_4487_WINDOW_4490_SHADE_1_\{06029\}
  0
3DFACE
  8
Building Shading
 62
195
 10
       45.16000
 20
     -101.06000
 30
       16.83000
 11
       52.39000
 21
     -101.29000
 31
       16.83000
 12
       52.41000
 22
     -100.84000
 32
       16.83000
 13
       45.17000
 23
     -100.60000
 33
       16.83000
999
Building Shading:Mir-EXTRUDED 13 \- CIB \(N&S SPACES\)_S418A \- OPEN OFFICE_WALL_4487_WINDOW_4490_SHADE_1_\{06029\}
  0
3DFACE
  8
Building Shading
 62
195
 10
       45.17000
 20
     -100.60000
 30
       16.83000
 11
       52.41000
 21
     -100.84000
 31
       16.83000
 12
       52.39000
 22
     -101.29000
 32
       16.83000
 13
       45.16000
 23
     -101.06000
 33
       16.83000
999
Building Shading:EXTRUDED 13 \- CIB \(N&S SPACES\)_S418A \- OPEN OFFICE_WALL_4492_WINDOW_4493_SHADE_1_\{06032\}
  0
3DFACE
  8
Building Shading
 62
195
 10
       37.83000
 20
     -100.53000
 30
       17.84000
 11
       45.05000
 21
     -101.05000
 31
       17.84000
 12
       45.08000
 22
     -100.59000
 32
       17.84000
 13
       37.86000
 23
     -100.08000
 33
       17.84000
999
Building Shading:Mir-EXTRUDED 13 \- CIB \(N&S SPACES\)_S418A \- OPEN OFFICE_WALL_4492_WINDOW_4493_SHADE_1_\{06032\}
  0
3DFACE
  8
Building Shading
 62
195
 10
       37.86000
 20
     -100.08000
 30
       17.84000
 11
       45.08000
 21
     -100.59000
 31
       17.84000
 12
       45.05000
 22
     -101.05000
 32
       17.84000
 13
       37.83000
 23
     -100.53000
 33
       17.84000
999
Building Shading:EXTRUDED 13 \- CIB \(N&S SPACES\)_S418A \- OPEN OFFICE_WALL_4492_WINDOW_4495_SHADE_1_\{06034\}
  0
3DFACE
  8
Building Shading
 62
195
 10
       37.83000
 20
     -100.53000
 30
       16.83000
 11
       45.05000
 21
     -101.05000
 31
       16.83000
 12
       45.08000
 22
     -100.59000
 32
       16.83000
 13
       37.86000
 23
     -100.08000
 33
       16.83000
999
Building Shading:Mir-EXTRUDED 13 \- CIB \(N&S SPACES\)_S418A \- OPEN OFFICE_WALL_4492_WINDOW_4495_SHADE_1_\{06034\}
  0
3DFACE
  8
Building Shading
 62
195
 10
       37.86000
 20
     -100.08000
 30
       16.83000
 11
       45.08000
 21
     -100.59000
 31
       16.83000
 12
       45.05000
 22
     -101.05000
 32
       16.83000
 13
       37.83000
 23
     -100.53000
 33
       16.83000
999
Building Shading:EXTRUDED 13 \- CIB \(N&S SPACES\)_S418A \- OPEN OFFICE_WALL_4497_WINDOW_4498_SHADE_1_\{06037\}
  0
3DFACE
  8
Building Shading
 62
195
 10
       30.52000
 20
      -99.75000
 30
       17.84000
 11
       37.72000
 21
     -100.52000
 31
       17.84000
 12
       37.77000
 22
     -100.07000
 32
       17.84000
 13
       30.57000
 23
      -99.29000
 33
       17.84000
999
Building Shading:Mir-EXTRUDED 13 \- CIB \(N&S SPACES\)_S418A \- OPEN OFFICE_WALL_4497_WINDOW_4498_SHADE_1_\{06037\}
  0
3DFACE
  8
Building Shading
 62
195
 10
       30.57000
 20
      -99.29000
 30
       17.84000
 11
       37.77000
 21
     -100.07000
 31
       17.84000
 12
       37.72000
 22
     -100.52000
 32
       17.84000
 13
       30.52000
 23
      -99.75000
 33
       17.84000
999
Building Shading:EXTRUDED 13 \- CIB \(N&S SPACES\)_S418A \- OPEN OFFICE_WALL_4497_WINDOW_4500_SHADE_1_\{06039\}
  0
3DFACE
  8
Building Shading
 62
195
 10
       30.52000
 20
      -99.75000
 30
       16.83000
 11
       37.72000
 21
     -100.52000
 31
       16.83000
 12
       37.77000
 22
     -100.07000
 32
       16.83000
 13
       30.57000
 23
      -99.29000
 33
       16.83000
999
Building Shading:Mir-EXTRUDED 13 \- CIB \(N&S SPACES\)_S418A \- OPEN OFFICE_WALL_4497_WINDOW_4500_SHADE_1_\{06039\}
  0
3DFACE
  8
Building Shading
 62
195
 10
       30.57000
 20
      -99.29000
 30
       16.83000
 11
       37.77000
 21
     -100.07000
 31
       16.83000
 12
       37.72000
 22
     -100.52000
 32
       16.83000
 13
       30.52000
 23
      -99.75000
 33
       16.83000
999
Building Shading:EXTRUDED 13 \- CIB \(N&S SPACES\)_S418A \- OPEN OFFICE_WALL_4502_WINDOW_4503_SHADE_1_\{06042\}
  0
3DFACE
  8
Building Shading
 62
195
 10
       26.73000
 20
      -99.22000
 30
       17.84000
 11
       30.36000
 21
      -99.73000
 31
       17.84000
 12
       30.42000
 22
      -99.28000
 32
       17.84000
 13
       26.80000
 23
      -98.77000
 33
       17.84000
999
Building Shading:Mir-EXTRUDED 13 \- CIB \(N&S SPACES\)_S418A \- OPEN OFFICE_WALL_4502_WINDOW_4503_SHADE_1_\{06042\}
  0
3DFACE
  8
Building Shading
 62
195
 10
       26.80000
 20
      -98.77000
 30
       17.84000
 11
       30.42000
 21
      -99.28000
 31
       17.84000
 12
       30.36000
 22
      -99.73000
 32
       17.84000
 13
       26.73000
 23
      -99.22000
 33
       17.84000
999
Building Shading:EXTRUDED 13 \- CIB \(N&S SPACES\)_S418A \- OPEN OFFICE_WALL_4502_WINDOW_4505_SHADE_1_\{06044\}
  0
3DFACE
  8
Building Shading
 62
195
 10
       26.73000
 20
      -99.22000
 30
       16.83000
 11
       30.36000
 21
      -99.73000
 31
       16.83000
 12
       30.42000
 22
      -99.28000
 32
       16.83000
 13
       26.80000
 23
      -98.77000
 33
       16.83000
999
Building Shading:Mir-EXTRUDED 13 \- CIB \(N&S SPACES\)_S418A \- OPEN OFFICE_WALL_4502_WINDOW_4505_SHADE_1_\{06044\}
  0
3DFACE
  8
Building Shading
 62
195
 10
       26.80000
 20
      -98.77000
 30
       16.83000
 11
       30.42000
 21
      -99.28000
 31
       16.83000
 12
       30.36000
 22
      -99.73000
 32
       16.83000
 13
       26.73000
 23
      -99.22000
 33
       16.83000
999
Building Shading:EXTRUDED 13 \- CIB \(N&S SPACES\)_N523 \- CORRIDOR AND RECEPTION_WALL_5452_WINDOW_5453_SHADE_1_\{07194\}
  0
3DFACE
  8
Building Shading
 62
195
 10
       20.58000
 20
      -55.49000
 30
       22.42000
 11
       26.44000
 21
      -54.10000
 31
       22.42000
 12
       26.33000
 22
      -53.65000
 32
       22.42000
 13
       20.47000
 23
      -55.05000
 33
       22.42000
999
Building Shading:Mir-EXTRUDED 13 \- CIB \(N&S SPACES\)_N523 \- CORRIDOR AND RECEPTION_WALL_5452_WINDOW_5453_SHADE_1_\{07194\}
  0
3DFACE
  8
Building Shading
 62
195
 10
       20.47000
 20
      -55.05000
 30
       22.42000
 11
       26.33000
 21
      -53.65000
 31
       22.42000
 12
       26.44000
 22
      -54.10000
 32
       22.42000
 13
       20.58000
 23
      -55.49000
 33
       22.42000
999
Building Shading:EXTRUDED 13 \- CIB \(N&S SPACES\)_N201 \- CORRIDOR_WALL_954_WINDOW_957_SHADE_1_\{01393\}
  0
3DFACE
  8
Building Shading
 62
195
 10
       70.66000
 20
      -42.23000
 30
        7.68000
 11
       77.10000
 21
      -40.37000
 31
        7.68000
 12
       76.97000
 22
      -39.94000
 32
        7.68000
 13
       70.53000
 23
      -41.79000
 33
        7.68000
999
Building Shading:Mir-EXTRUDED 13 \- CIB \(N&S SPACES\)_N201 \- CORRIDOR_WALL_954_WINDOW_957_SHADE_1_\{01393\}
  0
3DFACE
  8
Building Shading
 62
195
 10
       70.53000
 20
      -41.79000
 30
        7.68000
 11
       76.97000
 21
      -39.94000
 31
        7.68000
 12
       77.10000
 22
      -40.37000
 32
        7.68000
 13
       70.66000
 23
      -42.23000
 33
        7.68000
999
Building Shading:EXTRUDED 13 \- CIB \(N&S SPACES\)_N523 \- CORRIDOR AND RECEPTION_WALL_5452_WINDOW_5455_SHADE_1_\{07196\}
  0
3DFACE
  8
Building Shading
 62
195
 10
       20.58000
 20
      -55.49000
 30
       21.40000
 11
       26.44000
 21
      -54.10000
 31
       21.40000
 12
       26.33000
 22
      -53.65000
 32
       21.40000
 13
       20.47000
 23
      -55.05000
 33
       21.40000
999
Building Shading:Mir-EXTRUDED 13 \- CIB \(N&S SPACES\)_N523 \- CORRIDOR AND RECEPTION_WALL_5452_WINDOW_5455_SHADE_1_\{07196\}
  0
3DFACE
  8
Building Shading
 62
195
 10
       20.47000
 20
      -55.05000
 30
       21.40000
 11
       26.33000
 21
      -53.65000
 31
       21.40000
 12
       26.44000
 22
      -54.10000
 32
       21.40000
 13
       20.58000
 23
      -55.49000
 33
       21.40000
999
Building Shading:EXTRUDED 13 \- CIB \(N&S SPACES\)_N501 \- CORRIDOR_WALL_5534_WINDOW_5535_SHADE_1_\{07284\}
  0
3DFACE
  8
Building Shading
 62
195
 10
       70.67000
 20
      -42.22000
 30
       22.42000
 11
       77.12000
 21
      -40.37000
 31
       22.42000
 12
       76.99000
 22
      -39.93000
 32
       22.42000
 13
       70.55000
 23
      -41.79000
 33
       22.42000
999
Building Shading:Mir-EXTRUDED 13 \- CIB \(N&S SPACES\)_N501 \- CORRIDOR_WALL_5534_WINDOW_5535_SHADE_1_\{07284\}
  0
3DFACE
  8
Building Shading
 62
195
 10
       70.55000
 20
      -41.79000
 30
       22.42000
 11
       76.99000
 21
      -39.93000
 31
       22.42000
 12
       77.12000
 22
      -40.37000
 32
       22.42000
 13
       70.67000
 23
      -42.22000
 33
       22.42000
999
Building Shading:EXTRUDED 13 \- CIB \(N&S SPACES\)_N501 \- CORRIDOR_WALL_5534_WINDOW_5537_SHADE_1_\{07286\}
  0
3DFACE
  8
Building Shading
 62
195
 10
       70.67000
 20
      -42.22000
 30
       21.40000
 11
       77.12000
 21
      -40.37000
 31
       21.40000
 12
       76.99000
 22
      -39.93000
 32
       21.40000
 13
       70.55000
 23
      -41.79000
 33
       21.40000
999
Building Shading:Mir-EXTRUDED 13 \- CIB \(N&S SPACES\)_N501 \- CORRIDOR_WALL_5534_WINDOW_5537_SHADE_1_\{07286\}
  0
3DFACE
  8
Building Shading
 62
195
 10
       70.55000
 20
      -41.79000
 30
       21.40000
 11
       76.99000
 21
      -39.93000
 31
       21.40000
 12
       77.12000
 22
      -40.37000
 32
       21.40000
 13
       70.67000
 23
      -42.22000
 33
       21.40000
999
Building Shading:EXTRUDED 13 \- CIB \(N&S SPACES\)_S528A PERIMETER \- OPEN OFFICE_WALL_6192_WINDOW_6193_SHADE_1_\{08084\}
  0
3DFACE
  8
Building Shading
 62
195
 10
       67.20000
 20
     -101.04000
 30
       22.42000
 11
       74.42000
 21
     -100.51000
 31
       22.42000
 12
       74.39000
 22
     -100.05000
 32
       22.42000
 13
       67.17000
 23
     -100.59000
 33
       22.42000
999
Building Shading:Mir-EXTRUDED 13 \- CIB \(N&S SPACES\)_S528A PERIMETER \- OPEN OFFICE_WALL_6192_WINDOW_6193_SHADE_1_\{08084\}
  0
3DFACE
  8
Building Shading
 62
195
 10
       67.17000
 20
     -100.59000
 30
       22.42000
 11
       74.39000
 21
     -100.05000
 31
       22.42000
 12
       74.42000
 22
     -100.51000
 32
       22.42000
 13
       67.20000
 23
     -101.04000
 33
       22.42000
999
Building Shading:EXTRUDED 13 \- CIB \(N&S SPACES\)_S528A PERIMETER \- OPEN OFFICE_WALL_6192_WINDOW_6195_SHADE_1_\{08086\}
  0
3DFACE
  8
Building Shading
 62
195
 10
       67.20000
 20
     -101.04000
 30
       21.40000
 11
       74.42000
 21
     -100.51000
 31
       21.40000
 12
       74.39000
 22
     -100.05000
 32
       21.40000
 13
       67.17000
 23
     -100.59000
 33
       21.40000
999
Building Shading:Mir-EXTRUDED 13 \- CIB \(N&S SPACES\)_S528A PERIMETER \- OPEN OFFICE_WALL_6192_WINDOW_6195_SHADE_1_\{08086\}
  0
3DFACE
  8
Building Shading
 62
195
 10
       67.17000
 20
     -100.59000
 30
       21.40000
 11
       74.39000
 21
     -100.05000
 31
       21.40000
 12
       74.42000
 22
     -100.51000
 32
       21.40000
 13
       67.20000
 23
     -101.04000
 33
       21.40000
999
Building Shading:EXTRUDED 13 \- CIB \(N&S SPACES\)_S528A PERIMETER \- OPEN OFFICE_WALL_6197_WINDOW_6198_SHADE_1_\{08089\}
  0
3DFACE
  8
Building Shading
 62
195
 10
       59.85000
 20
     -101.27000
 30
       22.42000
 11
       67.06000
 21
     -101.05000
 31
       22.42000
 12
       67.04000
 22
     -100.60000
 32
       22.42000
 13
       59.83000
 23
     -100.82000
 33
       22.42000
999
Building Shading:Mir-EXTRUDED 13 \- CIB \(N&S SPACES\)_S528A PERIMETER \- OPEN OFFICE_WALL_6197_WINDOW_6198_SHADE_1_\{08089\}
  0
3DFACE
  8
Building Shading
 62
195
 10
       59.83000
 20
     -100.82000
 30
       22.42000
 11
       67.04000
 21
     -100.60000
 31
       22.42000
 12
       67.06000
 22
     -101.05000
 32
       22.42000
 13
       59.85000
 23
     -101.27000
 33
       22.42000
999
Building Shading:EXTRUDED 13 \- CIB \(N&S SPACES\)_S528A PERIMETER \- OPEN OFFICE_WALL_6197_WINDOW_6200_SHADE_1_\{08091\}
  0
3DFACE
  8
Building Shading
 62
195
 10
       59.85000
 20
     -101.27000
 30
       21.40000
 11
       67.06000
 21
     -101.05000
 31
       21.40000
 12
       67.04000
 22
     -100.60000
 32
       21.40000
 13
       59.83000
 23
     -100.82000
 33
       21.40000
999
Building Shading:Mir-EXTRUDED 13 \- CIB \(N&S SPACES\)_S528A PERIMETER \- OPEN OFFICE_WALL_6197_WINDOW_6200_SHADE_1_\{08091\}
  0
3DFACE
  8
Building Shading
 62
195
 10
       59.83000
 20
     -100.82000
 30
       21.40000
 11
       67.04000
 21
     -100.60000
 31
       21.40000
 12
       67.06000
 22
     -101.05000
 32
       21.40000
 13
       59.85000
 23
     -101.27000
 33
       21.40000
999
Building Shading:EXTRUDED 13 \- CIB \(N&S SPACES\)_S528A PERIMETER \- OPEN OFFICE_WALL_6202_WINDOW_6203_SHADE_1_\{08094\}
  0
3DFACE
  8
Building Shading
 62
195
 10
       52.51000
 20
     -101.30000
 30
       22.42000
 11
       59.75000
 21
     -101.28000
 31
       22.42000
 12
       59.75000
 22
     -100.82000
 32
       22.42000
 13
       52.51000
 23
     -100.84000
 33
       22.42000
999
Building Shading:Mir-EXTRUDED 13 \- CIB \(N&S SPACES\)_S528A PERIMETER \- OPEN OFFICE_WALL_6202_WINDOW_6203_SHADE_1_\{08094\}
  0
3DFACE
  8
Building Shading
 62
195
 10
       52.51000
 20
     -100.84000
 30
       22.42000
 11
       59.75000
 21
     -100.82000
 31
       22.42000
 12
       59.75000
 22
     -101.28000
 32
       22.42000
 13
       52.51000
 23
     -101.30000
 33
       22.42000
999
Building Shading:EXTRUDED 13 \- CIB \(N&S SPACES\)_S528A PERIMETER \- OPEN OFFICE_WALL_6202_WINDOW_6205_SHADE_1_\{08096\}
  0
3DFACE
  8
Building Shading
 62
195
 10
       52.51000
 20
     -101.30000
 30
       21.40000
 11
       59.75000
 21
     -101.28000
 31
       21.40000
 12
       59.75000
 22
     -100.82000
 32
       21.40000
 13
       52.51000
 23
     -100.84000
 33
       21.40000
999
Building Shading:Mir-EXTRUDED 13 \- CIB \(N&S SPACES\)_S528A PERIMETER \- OPEN OFFICE_WALL_6202_WINDOW_6205_SHADE_1_\{08096\}
  0
3DFACE
  8
Building Shading
 62
195
 10
       52.51000
 20
     -100.84000
 30
       21.40000
 11
       59.75000
 21
     -100.82000
 31
       21.40000
 12
       59.75000
 22
     -101.28000
 32
       21.40000
 13
       52.51000
 23
     -101.30000
 33
       21.40000
999
Building Shading:EXTRUDED 13 \- CIB \(N&S SPACES\)_S528B PERIMETER \- OPEN OFFICE_WALL_6221_WINDOW_6222_SHADE_1_\{08116\}
  0
3DFACE
  8
Building Shading
 62
195
 10
       45.16000
 20
     -101.06000
 30
       22.42000
 11
       52.40000
 21
     -101.29000
 31
       22.42000
 12
       52.42000
 22
     -100.84000
 32
       22.42000
 13
       45.18000
 23
     -100.60000
 33
       22.42000
999
Building Shading:Mir-EXTRUDED 13 \- CIB \(N&S SPACES\)_S528B PERIMETER \- OPEN OFFICE_WALL_6221_WINDOW_6222_SHADE_1_\{08116\}
  0
3DFACE
  8
Building Shading
 62
195
 10
       45.18000
 20
     -100.60000
 30
       22.42000
 11
       52.42000
 21
     -100.84000
 31
       22.42000
 12
       52.40000
 22
     -101.29000
 32
       22.42000
 13
       45.16000
 23
     -101.06000
 33
       22.42000
999
Building Shading:EXTRUDED 13 \- CIB \(N&S SPACES\)_S221 EXTERIOR \- OPEN OFFICE_WALL_1455_WINDOW_1456_SHADE_1_\{02052\}
  0
3DFACE
  8
Building Shading
 62
195
 10
       45.19000
 20
     -101.06000
 30
        8.70000
 11
       52.42000
 21
     -101.29000
 31
        8.70000
 12
       52.44000
 22
     -100.84000
 32
        8.70000
 13
       45.20000
 23
     -100.60000
 33
        8.70000
999
Building Shading:Mir-EXTRUDED 13 \- CIB \(N&S SPACES\)_S221 EXTERIOR \- OPEN OFFICE_WALL_1455_WINDOW_1456_SHADE_1_\{02052\}
  0
3DFACE
  8
Building Shading
 62
195
 10
       45.20000
 20
     -100.60000
 30
        8.70000
 11
       52.44000
 21
     -100.84000
 31
        8.70000
 12
       52.42000
 22
     -101.29000
 32
        8.70000
 13
       45.19000
 23
     -101.06000
 33
        8.70000
999
Building Shading:EXTRUDED 13 \- CIB \(N&S SPACES\)_S528B PERIMETER \- OPEN OFFICE_WALL_6221_WINDOW_6224_SHADE_1_\{08118\}
  0
3DFACE
  8
Building Shading
 62
195
 10
       45.16000
 20
     -101.06000
 30
       21.40000
 11
       52.40000
 21
     -101.29000
 31
       21.40000
 12
       52.42000
 22
     -100.84000
 32
       21.40000
 13
       45.18000
 23
     -100.60000
 33
       21.40000
999
Building Shading:Mir-EXTRUDED 13 \- CIB \(N&S SPACES\)_S528B PERIMETER \- OPEN OFFICE_WALL_6221_WINDOW_6224_SHADE_1_\{08118\}
  0
3DFACE
  8
Building Shading
 62
195
 10
       45.18000
 20
     -100.60000
 30
       21.40000
 11
       52.42000
 21
     -100.84000
 31
       21.40000
 12
       52.40000
 22
     -101.29000
 32
       21.40000
 13
       45.16000
 23
     -101.06000
 33
       21.40000
999
Building Shading:EXTRUDED 13 \- CIB \(N&S SPACES\)_S528B PERIMETER \- OPEN OFFICE_WALL_6226_WINDOW_6227_SHADE_1_\{08121\}
  0
3DFACE
  8
Building Shading
 62
195
 10
       37.83000
 20
     -100.53000
 30
       22.42000
 11
       45.05000
 21
     -101.05000
 31
       22.42000
 12
       45.08000
 22
     -100.59000
 32
       22.42000
 13
       37.86000
 23
     -100.08000
 33
       22.42000
999
Building Shading:Mir-EXTRUDED 13 \- CIB \(N&S SPACES\)_S528B PERIMETER \- OPEN OFFICE_WALL_6226_WINDOW_6227_SHADE_1_\{08121\}
  0
3DFACE
  8
Building Shading
 62
195
 10
       37.86000
 20
     -100.08000
 30
       22.42000
 11
       45.08000
 21
     -100.59000
 31
       22.42000
 12
       45.05000
 22
     -101.05000
 32
       22.42000
 13
       37.83000
 23
     -100.53000
 33
       22.42000
999
Building Shading:EXTRUDED 13 \- CIB \(N&S SPACES\)_S528B PERIMETER \- OPEN OFFICE_WALL_6226_WINDOW_6229_SHADE_1_\{08123\}
  0
3DFACE
  8
Building Shading
 62
195
 10
       37.83000
 20
     -100.53000
 30
       21.40000
 11
       45.05000
 21
     -101.05000
 31
       21.40000
 12
       45.08000
 22
     -100.59000
 32
       21.40000
 13
       37.86000
 23
     -100.08000
 33
       21.40000
999
Building Shading:Mir-EXTRUDED 13 \- CIB \(N&S SPACES\)_S528B PERIMETER \- OPEN OFFICE_WALL_6226_WINDOW_6229_SHADE_1_\{08123\}
  0
3DFACE
  8
Building Shading
 62
195
 10
       37.86000
 20
     -100.08000
 30
       21.40000
 11
       45.08000
 21
     -100.59000
 31
       21.40000
 12
       45.05000
 22
     -101.05000
 32
       21.40000
 13
       37.83000
 23
     -100.53000
 33
       21.40000
999
Building Shading:EXTRUDED 13 \- CIB \(N&S SPACES\)_SHADINGSURFACE_0_\{08399\}
  0
3DFACE
  8
Building Shading
 62
195
 10
       77.24000
 20
      -64.82000
 30
        3.05000
 11
       75.51000
 21
      -51.64000
 31
        3.05000
 12
       71.74000
 22
      -52.13000
 32
        3.05000
 13
       71.74000
 23
      -52.13000
 33
        3.05000
  0
3DFACE
  8
Building Shading
 62
195
 10
       77.24000
 20
      -64.82000
 30
        3.05000
 11
       71.74000
 21
      -52.13000
 31
        3.05000
 12
       71.77000
 22
      -52.39000
 32
        3.05000
 13
       71.77000
 23
      -52.39000
 33
        3.05000
  0
3DFACE
  8
Building Shading
 62
195
 10
       77.24000
 20
      -64.82000
 30
        3.05000
 11
       71.77000
 21
      -52.39000
 31
        3.05000
 12
       74.87000
 22
      -51.98000
 32
        3.05000
 13
       74.87000
 23
      -51.98000
 33
        3.05000
  0
3DFACE
  8
Building Shading
 62
195
 10
       77.24000
 20
      -64.82000
 30
        3.05000
 11
       74.87000
 21
      -51.98000
 31
        3.05000
 12
       76.55000
 22
      -64.72000
 32
        3.05000
 13
       76.55000
 23
      -64.72000
 33
        3.05000
  0
3DFACE
  8
Building Shading
 62
195
 10
       77.24000
 20
      -64.82000
 30
        3.05000
 11
       76.55000
 21
      -64.72000
 31
        3.05000
 12
       73.45000
 22
      -65.12000
 32
        3.05000
 13
       73.45000
 23
      -65.12000
 33
        3.05000
  0
3DFACE
  8
Building Shading
 62
195
 10
       77.24000
 20
      -64.82000
 30
        3.05000
 11
       73.45000
 21
      -65.12000
 31
        3.05000
 12
       73.47000
 22
      -65.31000
 32
        3.05000
 13
       73.47000
 23
      -65.31000
 33
        3.05000
999
Building Shading:Mir-EXTRUDED 13 \- CIB \(N&S SPACES\)_SHADINGSURFACE_0_\{08399\}
  0
3DFACE
  8
Building Shading
 62
195
 10
       73.47000
 20
      -65.31000
 30
        3.05000
 11
       73.45000
 21
      -65.12000
 31
        3.05000
 12
       76.55000
 22
      -64.72000
 32
        3.05000
 13
       76.55000
 23
      -64.72000
 33
        3.05000
  0
3DFACE
  8
Building Shading
 62
195
 10
       73.47000
 20
      -65.31000
 30
        3.05000
 11
       76.55000
 21
      -64.72000
 31
        3.05000
 12
       74.87000
 22
      -51.98000
 32
        3.05000
 13
       74.87000
 23
      -51.98000
 33
        3.05000
  0
3DFACE
  8
Building Shading
 62
195
 10
       73.47000
 20
      -65.31000
 30
        3.05000
 11
       74.87000
 21
      -51.98000
 31
        3.05000
 12
       71.77000
 22
      -52.39000
 32
        3.05000
 13
       71.77000
 23
      -52.39000
 33
        3.05000
  0
3DFACE
  8
Building Shading
 62
195
 10
       73.47000
 20
      -65.31000
 30
        3.05000
 11
       71.77000
 21
      -52.39000
 31
        3.05000
 12
       71.74000
 22
      -52.13000
 32
        3.05000
 13
       71.74000
 23
      -52.13000
 33
        3.05000
  0
3DFACE
  8
Building Shading
 62
195
 10
       73.47000
 20
      -65.31000
 30
        3.05000
 11
       71.74000
 21
      -52.13000
 31
        3.05000
 12
       75.51000
 22
      -51.64000
 32
        3.05000
 13
       75.51000
 23
      -51.64000
 33
        3.05000
  0
3DFACE
  8
Building Shading
 62
195
 10
       73.47000
 20
      -65.31000
 30
        3.05000
 11
       75.51000
 21
      -51.64000
 31
        3.05000
 12
       77.24000
 22
      -64.82000
 32
        3.05000
 13
       77.24000
 23
      -64.82000
 33
        3.05000
999
Building Shading:EXTRUDED 13 \- CIB \(N&S SPACES\)_SHADINGSURFACE_1_\{08400\}
  0
3DFACE
  8
Building Shading
 62
195
 10
       82.67000
 20
      -64.10000
 30
        4.01000
 11
       80.93000
 21
      -50.92000
 31
        4.01000
 12
       75.51000
 22
      -51.64000
 32
        3.05000
 13
       77.24000
 23
      -64.82000
 33
        3.05000
999
Building Shading:Mir-EXTRUDED 13 \- CIB \(N&S SPACES\)_SHADINGSURFACE_1_\{08400\}
  0
3DFACE
  8
Building Shading
 62
195
 10
       77.24000
 20
      -64.82000
 30
        3.05000
 11
       75.51000
 21
      -51.64000
 31
        3.05000
 12
       80.93000
 22
      -50.92000
 32
        4.01000
 13
       82.67000
 23
      -64.10000
 33
        4.01000
999
Building Shading:EXTRUDED 13 \- CIB \(N&S SPACES\)_SHADINGSURFACE_2_\{08401\}
  0
3DFACE
  8
Building Shading
 62
195
 10
       63.57000
 20
      -75.74000
 30
       24.23000
 11
       63.57000
 21
      -72.92000
 31
       24.23000
 12
       64.60000
 22
      -72.92000
 32
       24.23000
 13
       64.60000
 23
      -72.92000
 33
       24.23000
  0
3DFACE
  8
Building Shading
 62
195
 10
       63.57000
 20
      -75.74000
 30
       24.23000
 11
       64.60000
 21
      -72.92000
 31
       24.23000
 12
       61.20000
 22
      -47.04000
 32
       24.23000
 13
       61.20000
 23
      -47.04000
 33
       24.23000
  0
3DFACE
  8
Building Shading
 62
195
 10
       63.57000
 20
      -75.74000
 30
       24.23000
 11
       61.20000
 21
      -47.04000
 31
       24.23000
 12
       60.19000
 22
      -47.31000
 32
       24.23000
 13
       60.19000
 23
      -47.31000
 33
       24.23000
  0
3DFACE
  8
Building Shading
 62
195
 10
       63.57000
 20
      -75.74000
 30
       24.23000
 11
       60.19000
 21
      -47.31000
 31
       24.23000
 12
       59.44000
 22
      -44.54000
 32
       24.23000
 13
       59.44000
 23
      -44.54000
 33
       24.23000
  0
3DFACE
  8
Building Shading
 62
195
 10
       63.57000
 20
      -75.74000
 30
       24.23000
 11
       59.44000
 21
      -44.54000
 31
       24.23000
 12
       53.20000
 22
      -46.22000
 32
       24.23000
 13
       53.20000
 23
      -46.22000
 33
       24.23000
  0
3DFACE
  8
Building Shading
 62
195
 10
       63.57000
 20
      -75.74000
 30
       24.23000
 11
       53.20000
 21
      -46.22000
 31
       24.23000
 12
       57.09000
 22
      -75.75000
 32
       24.23000
 13
       57.09000
 23
      -75.75000
 33
       24.23000
999
Building Shading:Mir-EXTRUDED 13 \- CIB \(N&S SPACES\)_SHADINGSURFACE_2_\{08401\}
  0
3DFACE
  8
[...]
 21
      -89.13000
 31
       24.23000
 12
       55.87000
 22
      -89.13000
 32
       24.23000
 13
       55.87000
 23
      -89.13000
 33
       24.23000
  0
3DFACE
  8
THERMAL_ZONE_6
 62
 15
 10
       74.43000
 20
      -95.03000
 30
       24.23000
 11
       55.87000
 21
      -89.13000
 31
       24.23000
 12
       52.46000
 22
      -89.13000
 32
       24.23000
 13
       52.46000
 23
      -89.13000
 33
       24.23000
  0
3DFACE
  8
THERMAL_ZONE_6
 62
 15
 10
       74.43000
 20
      -95.03000
 30
       24.23000
 11
       52.46000
 21
      -89.13000
 31
       24.23000
 12
       52.46000
 22
      -95.03000
 32
       24.23000
 13
       52.46000
 23
      -95.03000
 33
       24.23000
999
THERMAL ZONE 6:EXTRUDED 13 \- CIB \(N&S SPACES\)_CEILING SPACE FOR S528A PERIMETER \- OPEN OFFICE_ROOFCEILING_6219_\{08111\}
  0
3DFACE
  8
THERMAL_ZONE_6
 62
 15
 10
       59.79000
 20
     -100.82000
 30
       24.23000
 11
       67.08000
 21
     -100.60000
 31
       24.23000
 12
       74.42000
 22
     -100.05000
 32
       24.23000
 13
       74.42000
 23
     -100.05000
 33
       24.23000
  0
3DFACE
  8
THERMAL_ZONE_6
 62
 15
 10
       59.79000
 20
     -100.82000
 30
       24.23000
 11
       74.42000
 21
     -100.05000
 31
       24.23000
 12
       79.14000
 22
      -99.57000
 32
       24.23000
 13
       79.14000
 23
      -99.57000
 33
       24.23000
  0
3DFACE
  8
THERMAL_ZONE_6
 62
 15
 10
       59.79000
 20
     -100.82000
 30
       24.23000
 11
       79.14000
 21
      -99.57000
 31
       24.23000
 12
       79.14000
 22
      -97.16000
 32
       24.23000
 13
       79.14000
 23
      -97.16000
 33
       24.23000
  0
3DFACE
  8
THERMAL_ZONE_6
 62
 15
 10
       59.79000
 20
     -100.82000
 30
       24.23000
 11
       79.14000
 21
      -97.16000
 31
       24.23000
 12
       74.43000
 22
      -97.16000
 32
       24.23000
 13
       74.43000
 23
      -97.16000
 33
       24.23000
  0
3DFACE
  8
THERMAL_ZONE_6
 62
 15
 10
       59.79000
 20
     -100.82000
 30
       24.23000
 11
       74.43000
 21
      -97.16000
 31
       24.23000
 12
       74.43000
 22
      -95.03000
 32
       24.23000
 13
       74.43000
 23
      -95.03000
 33
       24.23000
  0
3DFACE
  8
THERMAL_ZONE_6
 62
 15
 10
       59.79000
 20
     -100.82000
 30
       24.23000
 11
       74.43000
 21
      -95.03000
 31
       24.23000
 12
       52.46000
 22
      -95.03000
 32
       24.23000
 13
       52.46000
 23
      -95.03000
 33
       24.23000
  0
3DFACE
  8
THERMAL_ZONE_6
 62
 15
 10
       59.79000
 20
     -100.82000
 30
       24.23000
 11
       52.46000
 21
      -95.03000
 31
       24.23000
 12
       52.46000
 22
     -100.84000
 32
       24.23000
 13
       52.46000
 23
     -100.84000
 33
       24.23000
999
THERMAL ZONE 6:EXTRUDED 13 \- CIB \(N&S SPACES\)_CEILING SPACE FOR S528B INTERIOR \- OPEN OFFICE_ROOFCEILING_6335_\{08236\}
  0
3DFACE
  8
THERMAL_ZONE_6
 62
 15
 10
       52.46000
 20
      -95.03000
 30
       24.23000
 11
       52.46000
 21
      -89.13000
 31
       24.23000
 12
       33.09000
 22
      -89.12000
 32
       24.23000
 13
       33.09000
 23
      -89.12000
 33
       24.23000
  0
3DFACE
  8
THERMAL_ZONE_6
 62
 15
 10
       33.09000
 20
      -89.12000
 30
       24.23000
 11
       33.09000
 21
      -90.79000
 31
       24.23000
 12
       37.80000
 22
      -90.79000
 32
       24.23000
 13
       37.80000
 23
      -90.79000
 33
       24.23000
  0
3DFACE
  8
THERMAL_ZONE_6
 62
 15
 10
       52.46000
 20
      -95.03000
 30
       24.23000
 11
       33.09000
 21
      -89.12000
 31
       24.23000
 12
       37.80000
 22
      -90.79000
 32
       24.23000
 13
       37.80000
 23
      -90.79000
 33
       24.23000
  0
3DFACE
  8
THERMAL_ZONE_6
 62
 15
 10
       52.46000
 20
      -95.03000
 30
       24.23000
 11
       37.80000
 21
      -90.79000
 31
       24.23000
 12
       37.80000
 22
      -95.03000
 32
       24.23000
 13
       37.80000
 23
      -95.03000
 33
       24.23000
999
THERMAL ZONE 6:EXTRUDED 13 \- CIB \(N&S SPACES\)_CEILING SPACE FOR S528B PERIMETER \- OPEN OFFICE_ROOFCEILING_6247_\{08141\}
  0
3DFACE
  8
THERMAL_ZONE_6
 62
 15
 10
       52.46000
 20
      -95.03000
 30
       24.23000
 11
       37.80000
 21
      -95.03000
 31
       24.23000
 12
       37.80000
 22
      -97.17000
 32
       24.23000
 13
       37.80000
 23
      -97.17000
 33
       24.23000
  0
3DFACE
  8
THERMAL_ZONE_6
 62
 15
 10
       37.80000
 20
      -97.17000
 30
       24.23000
 11
       33.09000
 21
      -97.17000
 31
       24.23000
 12
       33.09000
 22
      -99.56000
 32
       24.23000
 13
       33.09000
 23
      -99.56000
 33
       24.23000
  0
3DFACE
  8
THERMAL_ZONE_6
 62
 15
 10
       52.46000
 20
      -95.03000
 30
       24.23000
 11
       37.80000
 21
      -97.17000
 31
       24.23000
 12
       33.09000
 22
      -99.56000
 32
       24.23000
 13
       33.09000
 23
      -99.56000
 33
       24.23000
  0
3DFACE
  8
THERMAL_ZONE_6
 62
 15
 10
       52.46000
 20
      -95.03000
 30
       24.23000
 11
       33.09000
 21
      -99.56000
 31
       24.23000
 12
       37.82000
 22
     -100.07000
 32
       24.23000
 13
       37.82000
 23
     -100.07000
 33
       24.23000
  0
3DFACE
  8
THERMAL_ZONE_6
 62
 15
 10
       37.82000
 20
     -100.07000
 30
       24.23000
 11
       45.12000
 21
     -100.60000
 31
       24.23000
 12
       52.46000
 22
     -100.84000
 32
       24.23000
 13
       52.46000
 23
     -100.84000
 33
       24.23000
  0
3DFACE
  8
THERMAL_ZONE_6
 62
 15
 10
       52.46000
 20
      -95.03000
 30
       24.23000
 11
       37.82000
 21
     -100.07000
 31
       24.23000
 12
       52.46000
 22
     -100.84000
 32
       24.23000
 13
       52.46000
 23
     -100.84000
 33
       24.23000
999
THERMAL ZONE 6:EXTRUDED 13 \- CIB \(N&S SPACES\)_CEILING SPACE FOR S529 \- COPY ROOM_ROOFCEILING_5895_\{07714\}
  0
3DFACE
  8
THERMAL_ZONE_6
 62
 15
 10
       55.87000
 20
      -89.13000
 30
       24.23000
 11
       55.05000
 21
      -85.97000
 31
       24.23000
 12
       53.63000
 22
      -85.97000
 32
       24.23000
 13
       53.63000
 23
      -89.13000
 33
       24.23000
999
THERMAL ZONE 6:EXTRUDED 13 \- CIB \(N&S SPACES\)_CEILING SPACE FOR S530 \- OFFICE_ROOFCEILING_5881_\{07697\}
  0
3DFACE
  8
THERMAL_ZONE_6
 62
 15
 10
       53.63000
 20
      -89.13000
 30
       24.23000
 11
       53.63000
 21
      -85.97000
 31
       24.23000
 12
       48.92000
 22
      -85.97000
 32
       24.23000
 13
       48.92000
 23
      -89.13000
 33
       24.23000
999
THERMAL ZONE 6:EXTRUDED 13 \- CIB \(N&S SPACES\)_CEILING SPACE FOR S531 \- OPEN OFFICE_ROOFCEILING_6307_\{08208\}
  0
3DFACE
  8
THERMAL_ZONE_6
 62
 15
 10
       44.24000
 20
      -89.13000
 30
       24.23000
 11
       44.24000
 21
      -81.95000
 31
       24.23000
 12
       37.34000
 22
      -81.95000
 32
       24.23000
 13
       37.34000
 23
      -89.13000
 33
       24.23000
999
THERMAL ZONE 6:EXTRUDED 13 \- CIB \(N&S SPACES\)_CEILING SPACE FOR S532 \- CONFERENCE_ROOFCEILING_5798_\{07598\}
  0
3DFACE
  8
THERMAL_ZONE_6
 62
 15
 10
       48.92000
 20
      -85.97000
 30
       24.23000
 11
       48.92000
 21
      -78.82000
 31
       24.23000
 12
       44.24000
 22
      -78.82000
 32
       24.23000
 13
       44.24000
 23
      -85.97000
 33
       24.23000
999
THERMAL ZONE 6:EXTRUDED 13 \- CIB \(N&S SPACES\)_CEILING SPACE FOR S533 \- OFFICE_ROOFCEILING_6403_\{08315\}
  0
3DFACE
  8
THERMAL_ZONE_6
 62
 15
 10
       44.24000
 20
      -81.95000
 30
       24.23000
 11
       44.24000
 21
      -78.82000
 31
       24.23000
 12
       39.48000
 22
      -78.82000
 32
       24.23000
 13
       39.48000
 23
      -81.95000
 33
       24.23000
999
THERMAL ZONE 6:EXTRUDED 13 \- CIB \(N&S SPACES\)_CEILING SPACE FOR S535 \- STORAGE_ROOFCEILING_6415_\{08330\}
  0
3DFACE
  8
THERMAL_ZONE_6
 62
 15
 10
       39.48000
 20
      -81.95000
 30
       24.23000
 11
       39.48000
 21
      -78.82000
 31
       24.23000
 12
       37.34000
 22
      -78.82000
 32
       24.23000
 13
       37.34000
 23
      -81.95000
 33
       24.23000
999
THERMAL ZONE 6:EXTRUDED 13 \- CIB \(N&S SPACES\)_CEILING SPACE FOR S536 \- BOOTH_ROOFCEILING_5826_\{07632\}
  0
3DFACE
  8
THERMAL_ZONE_6
 62
 15
 10
       37.34000
 20
      -89.12000
 30
       24.23000
 11
       37.34000
 21
      -85.97000
 31
       24.23000
 12
       35.37000
 22
      -85.97000
 32
       24.23000
 13
       35.37000
 23
      -89.12000
 33
       24.23000
999
THERMAL ZONE 6:EXTRUDED 13 \- CIB \(N&S SPACES\)_CEILING SPACE FOR S537 \- OFFICE_ROOFCEILING_5814_\{07617\}
  0
3DFACE
  8
THERMAL_ZONE_6
 62
 15
 10
       35.37000
 20
      -89.12000
 30
       24.23000
 11
       35.37000
 21
      -85.97000
 31
       24.23000
 12
       30.70000
 22
      -85.97000
 32
       24.23000
 13
       30.70000
 23
      -89.12000
 33
       24.23000
999
THERMAL ZONE 6:EXTRUDED 13 \- CIB \(N&S SPACES\)_CEILING SPACE FOR S538 \- OFFICE_ROOFCEILING_5716_\{07501\}
  0
3DFACE
  8
THERMAL_ZONE_6
 62
 15
 10
       37.80000
 20
      -93.99000
 30
       24.23000
 11
       37.80000
 21
      -90.79000
 31
       24.23000
 12
       33.09000
 22
      -90.79000
 32
       24.23000
 13
       33.09000
 23
      -93.99000
 33
       24.23000
999
THERMAL ZONE 6:EXTRUDED 13 \- CIB \(N&S SPACES\)_CEILING SPACE FOR S539 \- OFFICE_ROOFCEILING_5730_\{07517\}
  0
3DFACE
  8
THERMAL_ZONE_6
 62
 15
 10
       37.80000
 20
      -97.17000
 30
       24.23000
 11
       37.80000
 21
      -93.99000
 31
       24.23000
 12
       33.09000
 22
      -93.99000
 32
       24.23000
 13
       33.09000
 23
      -97.17000
 33
       24.23000
999
THERMAL ZONE 6:EXTRUDED 13 \- CIB \(N&S SPACES\)_CEILING SPACE FOR S540 \- OFFICE_ROOFCEILING_5742_\{07532\}
  0
3DFACE
  8
THERMAL_ZONE_6
 62
 15
 10
       33.09000
 20
      -93.99000
 30
       24.23000
 11
       33.09000
 21
      -90.79000
 31
       24.23000
 12
       28.41000
 22
      -90.79000
 32
       24.23000
 13
       28.41000
 23
      -93.99000
 33
       24.23000
999
THERMAL ZONE 6:EXTRUDED 13 \- CIB \(N&S SPACES\)_CEILING SPACE FOR S541 \- OFFICE_ROOFCEILING_5754_\{07546\}
  0
3DFACE
  8
THERMAL_ZONE_6
 62
 15
 10
       33.09000
 20
      -97.17000
 30
       24.23000
 11
       33.09000
 21
      -93.99000
 31
       24.23000
 12
       28.41000
 22
      -93.99000
 32
       24.23000
 13
       28.41000
 23
      -97.17000
 33
       24.23000
999
THERMAL ZONE 6:EXTRUDED 13 \- CIB \(N&S SPACES\)_CEILING SPACE FOR S544 \- EXECUTIVE OFFICE_ROOFCEILING_5839_\{07647\}
  0
3DFACE
  8
THERMAL_ZONE_6
 62
 15
 10
       26.76000
 20
      -91.97000
 30
       24.23000
 11
       22.38000
 21
      -91.97000
 31
       24.23000
 12
       22.38000
 22
      -98.16000
 32
       24.23000
 13
       26.76000
 23
      -98.76000
 33
       24.23000
999
THERMAL ZONE 6:EXTRUDED 13 \- CIB \(N&S SPACES\)_CEILING SPACE FOR S545 \- EXECUTIVE OFFICE_ROOFCEILING_5853_\{07663\}
  0
3DFACE
  8
THERMAL_ZONE_6
 62
 15
 10
       26.88000
 20
      -81.78000
 30
       24.23000
 11
       26.88000
 21
      -75.44000
 31
       24.23000
 12
       22.38000
 22
      -75.44000
 32
       24.23000
 13
       22.38000
 23
      -81.78000
 33
       24.23000
999
THERMAL ZONE 6:EXTRUDED 13 \- CIB \(N&S SPACES\)_CEILING SPACE FOR S546 INTERIOR \- OPEN OFFICE_ROOFCEILING_6379_\{08286\}
  0
3DFACE
  8
THERMAL_ZONE_6
 62
 15
 10
       28.41000
 20
      -90.79000
 30
       24.23000
 11
       33.09000
 21
      -90.79000
 31
       24.23000
 12
       33.09000
 22
      -89.12000
 32
       24.23000
 13
       33.09000
 23
      -89.12000
 33
       24.23000
  0
3DFACE
  8
THERMAL_ZONE_6
 62
 15
 10
       28.41000
 20
      -90.79000
 30
       24.23000
 11
       33.09000
 21
      -89.12000
 31
       24.23000
 12
       30.70000
 22
      -89.12000
 32
       24.23000
 13
       30.70000
 23
      -89.12000
 33
       24.23000
  0
3DFACE
  8
THERMAL_ZONE_6
 62
 15
 10
       28.41000
 20
      -90.79000
 30
       24.23000
 11
       30.70000
 21
      -89.12000
 31
       24.23000
 12
       30.70000
 22
      -78.82000
 32
       24.23000
 13
       30.70000
 23
      -78.82000
 33
       24.23000
  0
3DFACE
  8
THERMAL_ZONE_6
 62
 15
 10
       30.70000
 20
      -78.82000
 30
       24.23000
 11
       31.70000
 21
      -78.82000
 31
       24.23000
 12
       31.70000
 22
      -75.77000
 32
       24.23000
 13
       31.70000
 23
      -75.77000
 33
       24.23000
  0
3DFACE
  8
THERMAL_ZONE_6
 62
 15
 10
       30.70000
 20
      -78.82000
 30
       24.23000
 11
       31.70000
 21
      -75.77000
 31
       24.23000
 12
       29.49000
 22
      -75.77000
 32
       24.23000
 13
       29.49000
 23
      -75.77000
 33
       24.23000
  0
3DFACE
  8
THERMAL_ZONE_6
 62
 15
 10
       28.41000
 20
      -90.79000
 30
       24.23000
 11
       30.70000
 21
      -78.82000
 31
       24.23000
 12
       29.49000
 22
      -75.77000
 32
       24.23000
 13
       29.49000
 23
      -75.77000
 33
       24.23000
  0
3DFACE
  8
THERMAL_ZONE_6
 62
 15
 10
       28.41000
 20
      -90.79000
 30
       24.23000
 11
       29.49000
 21
      -75.77000
 31
       24.23000
 12
       29.45000
 22
      -75.44000
 32
       24.23000
 13
       29.45000
 23
      -75.44000
 33
       24.23000
  0
3DFACE
  8
THERMAL_ZONE_6
 62
 15
 10
       28.41000
 20
      -90.79000
 30
       24.23000
 11
       29.45000
 21
      -75.44000
 31
       24.23000
 12
       26.88000
 22
      -75.44000
 32
       24.23000
 13
       26.88000
 23
      -75.44000
 33
       24.23000
  0
3DFACE
  8
THERMAL_ZONE_6
 62
 15
 10
       28.41000
 20
      -97.17000
 30
       24.23000
 11
       28.41000
 21
      -90.79000
 31
       24.23000
 12
       26.88000
 22
      -75.44000
 32
       24.23000
 13
       26.88000
 23
      -75.44000
 33
       24.23000
  0
3DFACE
  8
THERMAL_ZONE_6
 62
 15
 10
       28.41000
 20
      -97.17000
 30
       24.23000
 11
       26.88000
 21
      -75.44000
 31
       24.23000
 12
       26.88000
 22
      -81.78000
 32
       24.23000
 13
       26.88000
 23
      -81.78000
 33
       24.23000
  0
3DFACE
  8
THERMAL_ZONE_6
 62
 15
 10
       28.41000
 20
      -97.17000
 30
       24.23000
 11
       26.88000
 21
      -81.78000
 31
       24.23000
 12
       26.76000
 22
      -81.78000
 32
       24.23000
 13
       26.76000
 23
      -81.78000
 33
       24.23000
  0
3DFACE
  8
THERMAL_ZONE_6
 62
 15
 10
       28.41000
 20
      -97.17000
 30
       24.23000
 11
       26.76000
 21
      -81.78000
 31
       24.23000
 12
       26.76000
 22
      -98.76000
 32
       24.23000
 13
       26.76000
 23
      -98.76000
 33
       24.23000
  0
3DFACE
  8
THERMAL_ZONE_6
 62
 15
 10
       28.41000
 20
      -97.17000
 30
       24.23000
 11
       26.76000
 21
      -98.76000
 31
       24.23000
 12
       30.49000
 22
      -99.28000
 32
       24.23000
 13
       30.49000
 23
      -99.28000
 33
       24.23000
  0
3DFACE
  8
THERMAL_ZONE_6
 62
 15
 10
       28.41000
 20
      -97.17000
 30
       24.23000
 11
       30.49000
 21
      -99.28000
 31
       24.23000
 12
       33.09000
 22
      -99.56000
 32
       24.23000
 13
       33.09000
 23
      -99.56000
 33
       24.23000
  0
3DFACE
  8
THERMAL_ZONE_6
 62
 15
 10
       33.09000
 20
      -97.17000
 30
       24.23000
 11
       28.41000
 21
      -97.17000
 31
       24.23000
 12
       33.09000
 22
      -99.56000
 32
       24.23000
 13
       33.09000
 23
      -99.56000
 33
       24.23000
999
THERMAL ZONE 6:EXTRUDED 13 \- CIB \(N&S SPACES\)_CEILING SPACE FOR S546 PERIMETER \- OPEN OFFICE_ROOFCEILING_6391_\{08300\}
  0
3DFACE
  8
THERMAL_ZONE_6
 62
 15
 10
       26.76000
 20
      -91.97000
 30
       24.23000
 11
       26.76000
 21
      -81.78000
 31
       24.23000
 12
       22.38000
 22
      -81.78000
 32
       24.23000
 13
       22.38000
 23
      -91.97000
 33
       24.23000
999
THERMAL ZONE 6:EXTRUDED 13 \- CIB \(N&S SPACES\)_CEILING SPACE FOR S587 \- ELEVATOR 3_ROOFCEILING_5784_\{07581\}
  0
3DFACE
  8
THERMAL_ZONE_6
 62
 15
 10
       37.34000
 20
      -85.97000
 30
       24.23000
 11
       37.34000
 21
      -78.82000
 31
       24.23000
 12
       34.53000
 22
      -78.82000
 32
       24.23000
 13
       34.53000
 23
      -85.97000
 33
       24.23000
999
THERMAL ZONE 6:EXTRUDED 13 \- CIB \(N&S SPACES\)_CEILING SPACE FOR S595 \- STAIR 2_ROOFCEILING_6089_\{07952\}
  0
3DFACE
  8
THERMAL_ZONE_6
 62
 15
 10
       81.55000
 20
      -85.97000
 30
       24.23000
 11
       81.55000
 21
      -78.82000
 31
       24.23000
 12
       77.69000
 22
      -78.82000
 32
       24.23000
 13
       77.69000
 23
      -85.97000
 33
       24.23000
999
THERMAL ZONE 6:EXTRUDED 13 \- CIB \(N&S SPACES\)_CEILING SPACE FOR S597 \- STAIR 4_ROOFCEILING_5768_\{07562\}
  0
3DFACE
  8
THERMAL_ZONE_6
 62
 15
 10
       34.53000
 20
      -85.97000
 30
       24.23000
 11
       34.53000
 21
      -78.82000
 31
       24.23000
 12
       30.70000
 22
      -78.82000
 32
       24.23000
 13
       30.70000
 23
      -85.97000
 33
       24.23000
999
THERMAL ZONE 7:EXTRUDED 13 \- CIB \(N&S SPACES\)_CEILING SPACE FOR S586 \- ELEVATOR SHAFT_WALL_5602_\{07369\}
  0
3DFACE
  8
THERMAL_ZONE_7
 62
 43
 10
       63.57000
 20
      -72.92000
 30
       24.23000
 11
       63.57000
 21
      -72.92000
 31
       22.71000
 12
       63.57000
 22
      -75.74000
 32
       22.71000
 13
       63.57000
 23
      -75.74000
 33
       24.23000
999
THERMAL ZONE 7:EXTRUDED 13 \- CIB \(N&S SPACES\)_CEILING SPACE FOR S586 \- ELEVATOR SHAFT_WALL_5603_\{07370\}
  0
3DFACE
  8
THERMAL_ZONE_7
 62
 43
 10
       70.67000
 20
      -72.92000
 30
       24.23000
 11
       70.67000
 21
      -72.92000
 31
       22.71000
 12
       63.57000
 22
      -72.92000
 32
       22.71000
 13
       63.57000
 23
      -72.92000
 33
       24.23000
999
THERMAL ZONE 7:EXTRUDED 13 \- CIB \(N&S SPACES\)_CEILING SPACE FOR S586 \- ELEVATOR SHAFT_WALL_5604_\{07371\}
  0
3DFACE
  8
THERMAL_ZONE_7
 62
 43
 10
       70.67000
 20
      -75.74000
 30
       24.23000
 11
       70.67000
 21
      -75.74000
 31
       22.71000
 12
       70.67000
 22
      -72.92000
 32
       22.71000
 13
       70.67000
 23
      -72.92000
 33
       24.23000
999
THERMAL ZONE 7:EXTRUDED 13 \- CIB \(N&S SPACES\)_CEILING SPACE FOR S586 \- ELEVATOR SHAFT_WALL_5605_\{07372\}
  0
3DFACE
  8
THERMAL_ZONE_7
 62
 43
 10
       63.57000
 20
      -75.74000
 30
       24.23000
 11
       63.57000
 21
      -75.74000
 31
       22.71000
 12
       70.67000
 22
      -75.74000
 32
       22.71000
 13
       70.67000
 23
      -75.74000
 33
       24.23000
999
THERMAL ZONE 7:EXTRUDED 13 \- CIB \(N&S SPACES\)_CEILING SPACE FOR S586 \- ELEVATOR SHAFT_FLOOR_5607_\{07373\}
  0
3DFACE
  8
THERMAL_ZONE_7
 62
  8
 10
       63.57000
 20
      -75.74000
 30
       22.71000
 11
       63.57000
 21
      -72.92000
 31
       22.71000
 12
       70.67000
 22
      -72.92000
 32
       22.71000
 13
       70.67000
 23
      -75.74000
 33
       22.71000
999
THERMAL ZONE 7:EXTRUDED 13 \- CIB \(N&S SPACES\)_CEILING SPACE FOR S586 \- ELEVATOR SHAFT_ROOFCEILING_8772_\{07374\}
  0
3DFACE
  8
THERMAL_ZONE_7
 62
 15
 10
       64.97000
 20
      -75.74000
 30
       24.23000
 11
       64.60000
 21
      -72.92000
 31
       24.23000
 12
       63.57000
 22
      -72.92000
 32
       24.23000
 13
       63.57000
 23
      -75.74000
 33
       24.23000
999
THERMAL ZONE 7:EXTRUDED 13 \- CIB \(N&S SPACES\)_CEILING SPACE FOR S586 \- ELEVATOR SHAFT_ROOFCEILING_8773_\{07375\}
  0
3DFACE
  8
THERMAL_ZONE_7
 62
 15
 10
       70.67000
 20
      -75.74000
 30
       24.23000
 11
       70.67000
 21
      -72.92000
 31
       24.23000
 12
       64.60000
 22
      -72.92000
 32
       24.23000
 13
       64.97000
 23
      -75.74000
 33
       24.23000
  0
ENDSEC
  0
EOF
