Program Version,EnergyPlus, Version 24.2.0-94a887817b, YMD=2024.10.29 10:36
! <Version>, Version ID
 Version, 22.1
! <Timesteps per Hour>, #TimeSteps, Minutes per TimeStep {minutes}
 Timesteps per Hour,  4, 15
! <System Convergence Limits>, Minimum System TimeStep {minutes}, Max HVAC Iterations, Minimum Plant Iterations, Maximum Plant Iterations
 System Convergence Limits, 10, 20, 2, 8
! <Simulation Control>, Do Zone Sizing, Do System Sizing, Do Plant Sizing, Do Design Days, Do Weather Simulation, Do HVAC Sizing Simulation
 Simulation Control, Yes, Yes, Yes, No, Yes, No
! <Performance Precision Tradeoffs>, Use Coil Direct Simulation, Zone Radiant Exchange Algorithm, Override Mode, Number of Timestep In Hour, Force Euler Method, Minimum Number of Warmup Days, Force Suppress All Begin Environment Resets, Minimum System Timestep, MaxZoneTempDiff, MaxAllowedDelTemp
 Performance Precision Tradeoffs, No, ScriptF, Normal, 4, No, 1, No, 10.0, 0.300, 2.0000E-003
! <Output Reporting Tolerances>, Tolerance for Time Heating Setpoint Not Met, Tolerance for Zone Cooling Setpoint Not Met Time
 Output Reporting Tolerances, 0.200, 0.200, 
! <Site:GroundTemperature:BuildingSurface>,Jan{C},Feb{C},Mar{C},Apr{C},May{C},Jun{C},Jul{C},Aug{C},Sep{C},Oct{C},Nov{C},Dec{C}
 Site:GroundTemperature:BuildingSurface,  18.00,  18.00,  18.00,  18.00,  18.00,  18.00,  18.00,  18.00,  18.00,  18.00,  18.00,  18.00
! <Site:GroundTemperature:FCfactorMethod>,Jan{C},Feb{C},Mar{C},Apr{C},May{C},Jun{C},Jul{C},Aug{C},Sep{C},Oct{C},Nov{C},Dec{C}
 Site:GroundTemperature:FCfactorMethod,  10.86,  10.57,  11.08,  11.88,  13.97,  15.58,  16.67,  17.00,  16.44,  15.19,  13.51,  11.96
! <Site:GroundTemperature:Shallow>,Jan{C},Feb{C},Mar{C},Apr{C},May{C},Jun{C},Jul{C},Aug{C},Sep{C},Oct{C},Nov{C},Dec{C}
 Site:GroundTemperature:Shallow,  13.00,  13.00,  13.00,  13.00,  13.00,  13.00,  13.00,  13.00,  13.00,  13.00,  13.00,  13.00
! <Site:GroundTemperature:Deep>,Jan{C},Feb{C},Mar{C},Apr{C},May{C},Jun{C},Jul{C},Aug{C},Sep{C},Oct{C},Nov{C},Dec{C}
 Site:GroundTemperature:Deep,  16.00,  16.00,  16.00,  16.00,  16.00,  16.00,  16.00,  16.00,  16.00,  16.00,  16.00,  16.00
! <Site:GroundReflectance>,Jan{dimensionless},Feb{dimensionless},Mar{dimensionless},Apr{dimensionless},May{dimensionless},Jun{dimensionless},Jul{dimensionless},Aug{dimensionless},Sep{dimensionless},Oct{dimensionless},Nov{dimensionless},Dec{dimensionless}
 Site:GroundReflectance,  0.20,  0.20,  0.20,  0.20,  0.20,  0.20,  0.20,  0.20,  0.20,  0.20,  0.20,  0.20
! <Site:GroundReflectance:SnowModifier>, Normal, Daylighting {dimensionless}
 Site:GroundReflectance:SnowModifier,   1.000,   1.000
! <Site:GroundReflectance:Snow>,Jan{dimensionless},Feb{dimensionless},Mar{dimensionless},Apr{dimensionless},May{dimensionless},Jun{dimensionless},Jul{dimensionless},Aug{dimensionless},Sep{dimensionless},Oct{dimensionless},Nov{dimensionless},Dec{dimensionless}
 Site:GroundReflectance:Snow,  0.20,  0.20,  0.20,  0.20,  0.20,  0.20,  0.20,  0.20,  0.20,  0.20,  0.20,  0.20
! <Site:GroundReflectance:Snow:Daylighting>,Jan{dimensionless},Feb{dimensionless},Mar{dimensionless},Apr{dimensionless},May{dimensionless},Jun{dimensionless},Jul{dimensionless},Aug{dimensionless},Sep{dimensionless},Oct{dimensionless},Nov{dimensionless},Dec{dimensionless}
 Site:GroundReflectance:Snow:Daylighting,  0.20,  0.20,  0.20,  0.20,  0.20,  0.20,  0.20,  0.20,  0.20,  0.20,  0.20,  0.20
! <Environment:Weather Station>,Wind Sensor Height Above Ground {m},Wind Speed Profile Exponent {},Wind Speed Profile Boundary Layer Thickness {m},Air Temperature Sensor Height Above Ground {m},Wind Speed Modifier Coefficient-Internal,Temperature Modifier Coefficient-Internal
Environment:Weather Station,10.000,0.140,270.000,1.500,1.586,9.750E-003
! <Site:Location>, Location Name, Latitude {N+/S- Deg}, Longitude {E+/W- Deg},  Time Zone Number {GMT+/-}, Elevation {m},  Standard Pressure at Elevation {Pa}, Standard RhoAir at Elevation
Site:Location,San Francisco Intl Ap CA USA TMY3 WMO#=724940,37.62,-122.40,-8.00,2.00,101301,1.2040
! <Site Water Mains Temperature Information>,Calculation Method{},Water Mains Temperature Schedule Name{},Annual Average Outdoor Air Temperature{C},Maximum Difference In Monthly Average Outdoor Air Temperatures{deltaC},Fixed Default Water Mains Temperature{C}
Site Water Mains Temperature Information,FixedDefault,NA,NA,NA,10.0
! <Building Information>, Building Name,North Axis {deg},Terrain,  Loads Convergence Tolerance Value,Temperature Convergence Tolerance Value,  Solar Distribution,Maximum Number of Warmup Days,Minimum Number of Warmup Days
 Building Information,SubjectBuilding_\{00118\},0.000,Suburbs,4.00000E-002,0.40000,FullExterior,25,1
! <Inside Convection Algorithm>, Algorithm {Simple | TARP | CeilingDiffuser | AdaptiveConvectionAlgorithm}
Inside Convection Algorithm,CeilingDiffuser
! <Outside Convection Algorithm>, Algorithm {SimpleCombined | TARP | MoWitt | DOE-2 | AdaptiveConvectionAlgorithm}
Outside Convection Algorithm,AdaptiveConvectionAlgorithm
! <Sky Radiance Distribution>, Value {Anisotropic}
Sky Radiance Distribution,Anisotropic
! <Zone Air Solution Algorithm>, Algorithm {ThirdOrderBackwardDifference | AnalyticalSolution | EulerMethod}, Space Heat Balance Sizing, Space Heat Balance Simulation
 Zone Air Solution Algorithm, ThirdOrderBackwardDifference, No, No
! <Zone Air Carbon Dioxide Balance Simulation>, Simulation {Yes/No}, Carbon Dioxide Concentration
 Zone Air Carbon Dioxide Balance Simulation, No,N/A
! <Zone Air Generic Contaminant Balance Simulation>, Simulation {Yes/No}, Generic Contaminant Concentration
 Zone Air Generic Contaminant Balance Simulation, No,N/A
! <Zone Air Mass Flow Balance Simulation>, Enforce Mass Balance, Adjust Zone Mixing and Return {AdjustMixingOnly | AdjustReturnOnly | AdjustMixingThenReturn | AdjustReturnThenMixing | None}, Adjust Zone Infiltration {AddInfiltration | AdjustInfiltration | None}, Infiltration Zones {MixingSourceZonesOnly | AllZones}
 Zone Air Mass Flow Balance Simulation, Yes,AdjustReturnThenMixing,AdjustInfiltrationFlow,AllZones
! <HVACSystemRootFindingAlgorithm>, Value {RegulaFalsi | Bisection | BisectionThenRegulaFalsi | RegulaFalsiThenBisection}
 HVACSystemRootFindingAlgorithm, RegulaFalsi
! <Environment:Site Atmospheric Variation>,Wind Speed Profile Exponent {},Wind Speed Profile Boundary Layer Thickness {m},Air Temperature Gradient Coefficient {K/m}
Environment:Site Atmospheric Variation,0.220,370.000,6.500000E-003
! <Shadowing/Sun Position Calculations Annual Simulations>, Shading Calculation Method, Shading Calculation Update Frequency Method, Shading Calculation Update Frequency {days}, Maximum Figures in Shadow Overlap Calculations {}, Polygon Clipping Algorithm, Pixel Counting Resolution, Sky Diffuse Modeling Algorithm, Output External Shading Calculation Results, Disable Self-Shading Within Shading Zone Groups, Disable Self-Shading From Shading Zone Groups to Other Zones
Shadowing/Sun Position Calculations Annual Simulations,PolygonClipping,Periodic,20,15000,SutherlandHodgman,512,SimpleSkyDiffuseModeling,No,No,No
! <Surface Geometry>,Starting Corner,Vertex Input Direction,Coordinate System,Daylight Reference Point Coordinate System,Rectangular (Simple) Surface Coordinate System
 Surface Geometry,UpperLeftCorner,Counterclockwise,RelativeCoordinateSystem,RelativeCoordinateSystem,RelativeToZoneOrigin
! <Surface Heat Transfer Algorithm>, Value {CTF - ConductionTransferFunction | EMPD - MoisturePenetrationDepthConductionTransferFunction | CondFD - ConductionFiniteDifference | HAMT - CombinedHeatAndMoistureFiniteElement} - Description,Inside Surface Max Temperature Limit{C}, Surface Convection Coefficient Lower Limit {W/m2-K}, Surface Convection Coefficient Upper Limit {W/m2-K}
Surface Heat Transfer Algorithm, CTF - ConductionTransferFunction,200,0.10,1000.0
Surface Heat Transfer Algorithm, KivaFoundation - TwoDimensionalFiniteDifference,200,0.10,1000.0
! <Shading Summary>, Number of Fixed Detached Shades, Number of Building Detached Shades, Number of Attached Shades
 Shading Summary,0,150,0
! <Zone Summary>, Number of Zones, Number of Zone Surfaces, Number of SubSurfaces
 Zone Summary,372,5530,158
! <Zone Information>,Zone Name,North Axis {deg},Origin X-Coordinate {m},Origin Y-Coordinate {m},Origin Z-Coordinate {m},Centroid X-Coordinate {m},Centroid Y-Coordinate {m},Centroid Z-Coordinate {m},Type,Zone Multiplier,Zone List Multiplier,Minimum X {m},Maximum X {m},Minimum Y {m},Maximum Y {m},Minimum Z {m},Maximum Z {m},Ceiling Height {m},Volume {m3},Zone Inside Convection Algorithm {Simple-Detailed-CeilingDiffuser-TrombeWall},Zone Outside Convection Algorithm {Simple-Detailed-Tarp-MoWitt-DOE-2-BLAST}, Floor Area {m2},Exterior Gross Wall Area {m2},Exterior Net Wall Area {m2},Exterior Window Area {m2}, Number of Surfaces, Number of SubSurfaces, Number of Shading SubSurfaces,  Part of Total Building Area
 Zone Information, A100 RECEPTION_\{13822\},0.0,0.00,0.00,0.00,74.16,-58.55,1.53,1,1,1,71.77,76.55,-65.12,-51.98,0.00,3.05,3.05,122.37,CeilingDiffuser,AdaptiveConvectionAlgorithm,40.15,58.26,26.88,31.39,6,12,0,Yes
 Zone Information, A220 \- ATRIUM_\{13815\},0.0,0.00,0.00,0.00,46.93,-60.30,8.23,1,1,1,26.56,74.84,-75.77,-41.61,5.94,10.52,4.58,5862.36,CeilingDiffuser,AdaptiveConvectionAlgorithm,1281.12,260.99,107.62,153.37,12,1,0,Yes
 Zone Information, A320 \- ATRIUM_\{13808\},0.0,0.00,0.00,0.00,46.93,-60.30,12.81,1,1,1,26.56,74.84,-75.77,-41.61,10.52,15.09,4.57,5852.06,CeilingDiffuser,AdaptiveConvectionAlgorithm,1281.10,260.42,107.43,152.99,12,1,0,Yes
 Zone Information, A420 \- ATRIUM_\{13801\},0.0,0.00,0.00,0.00,50.36,-60.93,16.67,1,1,1,26.56,74.84,-75.77,-41.61,15.09,19.66,3.18,4068.29,CeilingDiffuser,AdaptiveConvectionAlgorithm,1281.11,173.80,81.07,195.80,10,2,0,Yes
 Zone Information, A500A \- STORAGE_\{13794\},0.0,0.00,0.00,0.00,63.24,-45.00,21.19,1,1,1,59.44,67.04,-47.31,-42.70,19.66,22.71,3.05,61.95,CeilingDiffuser,AdaptiveConvectionAlgorithm,20.32,39.11,34.00,0.00,6,2,0,Yes
 Zone Information, A501 \- BRIDGE_\{13787\},0.0,0.00,0.00,0.00,49.04,-61.80,21.19,1,1,1,40.90,57.09,-75.76,-46.22,19.66,22.71,3.05,1082.49,CeilingDiffuser,AdaptiveConvectionAlgorithm,355.14,171.53,30.47,141.06,7,8,0,Yes
 Zone Information, LEVEL 1\.2 SPACE_\{13780\},0.0,0.00,0.00,0.00,42.30,-63.24,2.92,1,1,1,21.96,74.84,-78.74,-41.61,0.00,5.94,5.94,8287.23,CeilingDiffuser,AdaptiveConvectionAlgorithm,1394.23,299.45,170.73,128.73,17,4,0,Yes
 Zone Information, N101 \- PRE\-FUNCTION_\{13773\},0.0,0.00,0.00,0.00,56.06,-41.79,2.97,1,1,1,21.80,89.89,-54.69,-30.36,0.00,5.94,5.94,2106.45,CeilingDiffuser,AdaptiveConvectionAlgorithm,354.42,154.12,87.41,66.71,50,10,0,Yes
 Zone Information, N102 \- CONFERENCE_\{13766\},0.0,0.00,0.00,0.00,55.42,-31.98,2.97,1,1,1,35.62,74.54,-42.47,-17.58,0.00,5.94,5.94,3567.06,CeilingDiffuser,AdaptiveConvectionAlgorithm,600.11,0.00,0.00,0.00,34,0,0,Yes
 Zone Information, N102A \- STORAGE_\{13759\},0.0,0.00,0.00,0.00,74.40,-32.35,2.97,1,1,1,72.67,76.12,-35.57,-29.14,0.00,5.94,5.94,70.43,CeilingDiffuser,AdaptiveConvectionAlgorithm,11.85,0.00,0.00,0.00,10,0,0,Yes
 Zone Information, N103 \- JANITOR_\{13752\},0.0,0.00,0.00,0.00,78.02,-33.44,2.97,1,1,1,75.56,80.48,-35.07,-31.80,0.00,5.94,5.94,58.13,CeilingDiffuser,AdaptiveConvectionAlgorithm,9.79,0.00,0.00,0.00,7,0,0,Yes
 Zone Information, N104 \- BUSINESS CENTER_\{13745\},0.0,0.00,0.00,0.00,78.39,-22.26,2.97,1,1,1,73.48,83.02,-30.88,-14.81,0.00,5.94,5.94,474.22,CeilingDiffuser,AdaptiveConvectionAlgorithm,79.78,49.71,47.21,0.00,16,1,0,Yes
 Zone Information, N104A \- GREENROOM_\{13738\},0.0,0.00,0.00,0.00,77.30,-30.79,2.97,1,1,1,74.71,79.92,-32.97,-28.61,0.00,5.94,5.94,88.78,CeilingDiffuser,AdaptiveConvectionAlgorithm,14.95,0.00,0.00,0.00,9,0,0,Yes
 Zone Information, N104B \- LUGGAGE STORAGE_\{13731\},0.0,0.00,0.00,0.00,76.54,-27.87,2.97,1,1,1,74.00,79.07,-29.78,-25.97,0.00,5.94,5.94,73.32,CeilingDiffuser,AdaptiveConvectionAlgorithm,12.33,0.00,0.00,0.00,8,0,0,Yes
 Zone Information, N104D \- STORAGE_\{13724\},0.0,0.00,0.00,0.00,83.77,-17.15,2.97,1,1,1,81.56,85.98,-20.28,-14.02,0.00,5.94,5.94,102.88,CeilingDiffuser,AdaptiveConvectionAlgorithm,17.31,51.73,51.73,0.00,6,0,0,Yes
 Zone Information, N105/106 \- RESTROOM_\{13716\},0.0,0.00,0.00,0.00,84.17,-26.44,2.97,1,1,1,79.20,89.23,-33.40,-19.48,0.00,5.94,5.94,523.26,CeilingDiffuser,AdaptiveConvectionAlgorithm,88.03,74.42,74.42,0.00,10,0,0,Yes
 Zone Information, N107 \- AV/IDF_\{13709\},0.0,0.00,0.00,0.00,38.04,-40.57,2.97,1,1,1,35.08,40.86,-45.57,-35.60,0.00,5.94,5.94,193.91,CeilingDiffuser,AdaptiveConvectionAlgorithm,32.62,0.00,0.00,0.00,9,0,0,Yes
 Zone Information, N108/109 \- RESTROOM_\{13701\},0.0,0.00,0.00,0.00,32.15,-40.51,2.97,1,1,1,26.98,37.51,-47.52,-33.44,0.00,5.94,5.94,562.58,CeilingDiffuser,AdaptiveConvectionAlgorithm,94.65,0.00,0.00,0.00,13,0,0,Yes
 Zone Information, N110 \- CORRIDOR_\{13694\},0.0,0.00,0.00,0.00,22.67,-39.75,2.97,1,1,1,18.32,27.12,-51.06,-29.24,0.00,5.94,5.94,393.80,CeilingDiffuser,AdaptiveConvectionAlgorithm,66.25,9.90,9.90,0.00,19,0,0,Yes
 Zone Information, N111 \- ELEC_\{13687\},0.0,0.00,0.00,0.00,20.92,-51.10,2.97,1,1,1,17.23,24.30,-54.04,-47.98,0.00,5.94,5.94,173.32,CeilingDiffuser,AdaptiveConvectionAlgorithm,29.16,47.91,47.91,0.00,10,0,0,Yes
 Zone Information, N112 \- WATER HEATER_\{13680\},0.0,0.00,0.00,0.00,19.77,-47.02,2.97,1,1,1,16.28,23.27,-49.60,-44.44,0.00,5.94,5.94,136.08,CeilingDiffuser,AdaptiveConvectionAlgorithm,22.89,21.77,21.77,0.00,7,0,0,Yes
 Zone Information, N113 \- MECHANICAL_\{13673\},0.0,0.00,0.00,0.00,17.63,-38.52,2.97,1,1,1,12.83,22.32,-46.06,-31.62,0.00,5.94,5.94,494.47,CeilingDiffuser,AdaptiveConvectionAlgorithm,83.19,115.27,115.27,0.00,9,0,0,Yes
 Zone Information, N114 \- STORAGE_\{13666\},0.0,0.00,0.00,0.00,30.20,-32.62,2.97,1,1,1,21.29,37.27,-40.57,-25.42,0.00,5.94,5.94,776.39,CeilingDiffuser,AdaptiveConvectionAlgorithm,130.68,0.00,0.00,0.00,22,0,0,Yes
 Zone Information, N115 \- CORRIDOR_\{13659\},0.0,0.00,0.00,0.00,44.22,-21.95,2.97,1,1,1,17.32,71.36,-30.04,-12.75,0.00,5.94,5.94,1269.86,CeilingDiffuser,AdaptiveConvectionAlgorithm,213.63,373.81,365.48,8.33,22,2,0,Yes
 Zone Information, N116 \- STORAGE_\{13652\},0.0,0.00,0.00,0.00,71.35,-20.79,2.97,1,1,1,69.38,73.29,-25.00,-17.05,0.00,5.94,5.94,91.08,CeilingDiffuser,AdaptiveConvectionAlgorithm,15.32,2.88,2.88,0.00,9,0,0,Yes
 Zone Information, N189/198_ELEV_STAIR_5_\{13645\},0.0,0.00,0.00,0.00,27.56,-44.71,2.97,1,1,1,24.52,30.61,-49.87,-39.55,0.00,5.94,5.94,213.35,CeilingDiffuser,AdaptiveConvectionAlgorithm,35.93,0.00,0.00,0.00,9,0,0,Yes
 Zone Information, N199 \- STAIR 6_\{13638\},0.0,0.00,0.00,0.00,73.54,-21.75,2.97,1,1,1,71.43,75.67,-27.14,-16.99,0.00,5.94,5.94,105.70,CeilingDiffuser,AdaptiveConvectionAlgorithm,17.78,12.29,9.79,0.00,11,1,0,Yes
 Zone Information, N201 \- CORRIDOR_\{13631\},0.0,0.00,0.00,0.00,54.62,-43.44,7.47,1,1,1,27.91,80.57,-52.80,-35.75,5.94,8.99,3.05,558.58,CeilingDiffuser,AdaptiveConvectionAlgorithm,182.99,33.12,18.72,14.41,32,2,0,Yes
 Zone Information, N203 \- WOMEN\'S RESTROOM_\{13580\},0.0,0.00,0.00,0.00,71.93,-34.54,7.47,1,1,1,67.31,76.57,-38.18,-29.96,5.94,8.99,3.05,158.30,CeilingDiffuser,AdaptiveConvectionAlgorithm,51.85,0.00,0.00,0.00,11,0,0,Yes
 Zone Information, N204 \- MEN\'S RESTROOM_\{13616\},0.0,0.00,0.00,0.00,65.50,-36.23,7.46,1,1,1,61.17,68.86,-40.36,-31.96,5.94,8.99,3.05,129.57,CeilingDiffuser,AdaptiveConvectionAlgorithm,42.45,0.00,0.00,0.00,10,0,0,Yes
 Zone Information, N205 \- ELECTRIC ROOM_\{13609\},0.0,0.00,0.00,0.00,60.88,-38.88,7.46,1,1,1,58.92,62.98,-41.18,-36.57,5.94,8.99,3.05,37.75,CeilingDiffuser,AdaptiveConvectionAlgorithm,12.37,0.00,0.00,0.00,8,0,0,Yes
 Zone Information, N206 \- JANITOR_\{13602\},0.0,0.00,0.00,0.00,60.04,-35.49,7.46,1,1,1,58.12,61.96,-37.38,-33.60,5.94,8.99,3.05,29.53,CeilingDiffuser,AdaptiveConvectionAlgorithm,9.68,0.00,0.00,0.00,6,0,0,Yes
 Zone Information, N209 \- A/V_\{13595\},0.0,0.00,0.00,0.00,55.93,-38.63,7.47,1,1,1,53.54,58.32,-42.40,-34.85,5.94,8.99,3.05,65.55,CeilingDiffuser,AdaptiveConvectionAlgorithm,21.48,0.00,0.00,0.00,8,0,0,Yes
 Zone Information, N210 \- MDF_\{13588\},0.0,0.00,0.00,0.00,50.56,-40.02,7.46,1,1,1,45.80,55.36,-44.48,-35.65,5.94,8.99,3.05,171.08,CeilingDiffuser,AdaptiveConvectionAlgorithm,56.05,0.00,0.00,0.00,8,0,0,Yes
 Zone Information, N211 \- MECHANICAL ROOM_\{13573\},0.0,0.00,0.00,0.00,43.05,-42.09,7.46,1,1,1,38.80,47.61,-46.35,-37.72,5.94,8.99,3.05,154.77,CeilingDiffuser,AdaptiveConvectionAlgorithm,50.71,0.00,0.00,0.00,9,0,0,Yes
 Zone Information, N213 \- STAFF OFFICE_\{13566\},0.0,0.00,0.00,0.00,18.37,-53.76,7.46,1,1,1,16.37,20.41,-55.81,-51.52,5.94,8.99,3.05,35.39,CeilingDiffuser,AdaptiveConvectionAlgorithm,11.60,20.69,20.69,0.00,8,0,0,Yes
 Zone Information, N214 \- CONFERENCE_\{13559\},0.0,0.00,0.00,0.00,17.33,-44.82,7.47,1,1,1,13.18,21.46,-51.17,-38.97,5.94,8.99,3.05,188.98,CeilingDiffuser,AdaptiveConvectionAlgorithm,61.92,33.67,33.67,0.00,9,0,0,Yes
 Zone Information, N215 \- CORRIDOR_\{13552\},0.0,0.00,0.00,0.00,21.33,-45.90,7.47,1,1,1,12.67,28.76,-55.06,-36.31,5.94,8.99,3.05,363.86,CeilingDiffuser,AdaptiveConvectionAlgorithm,119.17,29.81,16.88,12.93,27,2,0,Yes
 Zone Information, N216 \- MULTIPURPOSE_\{13545\},0.0,0.00,0.00,0.00,17.00,-33.87,7.46,1,1,1,10.96,21.97,-38.58,-29.47,5.94,8.99,3.05,203.04,CeilingDiffuser,AdaptiveConvectionAlgorithm,66.53,52.31,52.31,0.00,9,0,0,Yes
 Zone Information, N217 \- VESTIBULE_\{13538\},0.0,0.00,0.00,0.00,25.55,-34.83,7.47,1,1,1,21.13,30.34,-38.27,-31.22,5.94,8.99,3.05,119.99,CeilingDiffuser,AdaptiveConvectionAlgorithm,39.31,0.00,0.00,0.00,13,0,0,Yes
 Zone Information, N218 \- VISITOR OFFICE_\{13531\},0.0,0.00,0.00,0.00,22.76,-30.65,7.46,1,1,1,21.16,24.36,-32.48,-28.83,5.94,8.99,3.05,23.58,CeilingDiffuser,AdaptiveConvectionAlgorithm,7.73,7.58,7.58,0.00,7,0,0,Yes
 Zone Information, N219 \- VISITOR OFFICE_\{13524\},0.0,0.00,0.00,0.00,25.13,-30.02,7.46,1,1,1,23.56,26.70,-31.84,-28.20,5.94,8.99,3.05,22.98,CeilingDiffuser,AdaptiveConvectionAlgorithm,7.53,7.36,7.36,0.00,6,0,0,Yes
 Zone Information, N220 \- CONFERENCE ROOM_\{13624\},0.0,0.00,0.00,0.00,33.04,-29.55,7.46,1,1,1,25.89,39.23,-34.19,-25.04,5.94,8.99,3.05,230.12,CeilingDiffuser,AdaptiveConvectionAlgorithm,75.40,37.05,37.05,0.00,10,0,0,Yes
 Zone Information, N221 \- PANTRY_\{13517\},0.0,0.00,0.00,0.00,27.81,-38.12,7.46,1,1,1,23.59,31.94,-40.50,-35.71,5.94,8.99,3.05,68.36,CeilingDiffuser,AdaptiveConvectionAlgorithm,22.40,0.00,0.00,0.00,9,0,0,Yes
 Zone Information, N225 \- STORAGE_\{13510\},0.0,0.00,0.00,0.00,32.14,-43.56,7.47,1,1,1,30.69,33.59,-45.21,-41.92,5.94,8.99,3.05,19.23,CeilingDiffuser,AdaptiveConvectionAlgorithm,6.30,0.00,0.00,0.00,6,0,0,Yes
 Zone Information, N226 \- CORRIDOR_\{13503\},0.0,0.00,0.00,0.00,30.63,-42.74,7.47,1,1,1,28.06,32.87,-47.73,-38.46,5.94,8.99,3.05,70.61,CeilingDiffuser,AdaptiveConvectionAlgorithm,23.13,0.00,0.00,0.00,12,0,0,Yes
 Zone Information, N227 \- A/V_\{13496\},0.0,0.00,0.00,0.00,32.99,-46.53,7.46,1,1,1,31.42,34.53,-48.60,-44.62,5.94,8.99,3.05,24.42,CeilingDiffuser,AdaptiveConvectionAlgorithm,8.00,0.00,0.00,0.00,9,0,0,Yes
 Zone Information, N230 \- CUSTEXP \- VRF4_\{13489\},0.0,0.00,0.00,0.00,84.22,-33.51,7.47,1,1,1,78.64,91.68,-38.78,-27.74,5.94,8.99,3.05,278.78,CeilingDiffuser,AdaptiveConvectionAlgorithm,91.35,58.40,47.92,10.49,14,2,0,Yes
 Zone Information, N231 \- CUSTEXP AHU_\{13482\},0.0,0.00,0.00,0.00,37.88,-35.86,7.47,1,1,1,29.71,47.90,-47.23,-23.28,5.94,8.99,3.05,647.07,CeilingDiffuser,AdaptiveConvectionAlgorithm,212.02,20.72,20.72,0.00,21,0,0,Yes
 Zone Information, N232 \- CUSTEXP \- WSHP_\{13475\},0.0,0.00,0.00,0.00,56.66,-31.39,7.46,1,1,1,44.18,67.31,-40.64,-18.06,5.94,8.99,3.05,912.63,CeilingDiffuser,AdaptiveConvectionAlgorithm,299.03,61.30,61.30,0.00,16,0,0,Yes
 Zone Information, N233 \- CUSTEXP \- VRF1_\{13468\},0.0,0.00,0.00,0.00,69.98,-20.51,7.46,1,1,1,63.59,76.40,-26.05,-15.19,5.94,8.99,3.05,278.98,CeilingDiffuser,AdaptiveConvectionAlgorithm,91.41,33.67,33.67,0.00,11,0,0,Yes
 Zone Information, N234 \- CUSTEXP \- VRF 2_\{13461\},0.0,0.00,0.00,0.00,81.02,-17.90,7.47,1,1,1,74.25,87.73,-23.19,-12.14,5.94,8.99,3.05,296.77,CeilingDiffuser,AdaptiveConvectionAlgorithm,97.24,61.09,61.09,0.00,9,0,0,Yes
 Zone Information, N235 \- CUSTEXP \- VRF3_\{13454\},0.0,0.00,0.00,0.00,78.14,-26.81,7.46,1,1,1,65.73,89.77,-31.96,-20.16,5.94,8.99,3.05,486.16,CeilingDiffuser,AdaptiveConvectionAlgorithm,159.29,23.94,23.94,0.00,18,0,0,Yes
 Zone Information, N289 \- ELEVATOR 5_\{13447\},0.0,0.00,0.00,0.00,26.56,-41.39,7.47,1,1,1,24.32,28.80,-43.28,-39.50,5.94,8.99,3.05,33.97,CeilingDiffuser,AdaptiveConvectionAlgorithm,11.13,0.00,0.00,0.00,8,0,0,Yes
 Zone Information, N298 \- STAIR 5_\{13440\},0.0,0.00,0.00,0.00,27.83,-46.11,7.47,1,1,1,25.07,30.58,-49.93,-42.28,5.94,8.99,3.05,81.21,CeilingDiffuser,AdaptiveConvectionAlgorithm,26.56,0.00,0.00,0.00,9,0,0,Yes
 Zone Information, N299 \- STAIR 6_\{13433\},0.0,0.00,0.00,0.00,77.37,-32.83,7.47,1,1,1,74.76,79.98,-36.61,-29.04,5.94,8.99,3.05,74.74,CeilingDiffuser,AdaptiveConvectionAlgorithm,24.49,0.00,0.00,0.00,10,0,0,Yes
 Zone Information, N301 \- CORRIDOR_\{13426\},0.0,0.00,0.00,0.00,55.37,-42.41,12.04,1,1,1,27.90,80.52,-52.81,-35.07,10.52,13.56,3.04,658.93,CeilingDiffuser,AdaptiveConvectionAlgorithm,216.43,32.86,18.43,14.43,51,2,0,Yes
 Zone Information, N302 \- JANITOR\'S ROOM_\{13419\},0.0,0.00,0.00,0.00,74.43,-32.61,12.04,1,1,1,72.68,76.15,-35.63,-29.96,10.52,13.56,3.04,35.07,CeilingDiffuser,AdaptiveConvectionAlgorithm,11.52,0.00,0.00,0.00,8,0,0,Yes
 Zone Information, N303 \- WOMEN\'S RESTROOM_\{13412\},0.0,0.00,0.00,0.00,70.97,-34.96,12.04,1,1,1,67.37,74.48,-38.10,-30.52,10.52,13.56,3.04,110.01,CeilingDiffuser,AdaptiveConvectionAlgorithm,36.14,0.00,0.00,0.00,10,0,0,Yes
 Zone Information, N304 \- MEN\'S RESTROOM_\{13405\},0.0,0.00,0.00,0.00,65.69,-36.37,12.04,1,1,1,61.92,68.91,-40.12,-31.94,10.52,13.56,3.04,112.70,CeilingDiffuser,AdaptiveConvectionAlgorithm,37.02,0.00,0.00,0.00,11,0,0,Yes
 Zone Information, N305 \- ELECTRICAL ROOM_\{13398\},0.0,0.00,0.00,0.00,61.77,-39.06,12.04,1,1,1,59.80,63.73,-40.96,-37.15,10.52,13.56,3.04,30.34,CeilingDiffuser,AdaptiveConvectionAlgorithm,9.97,0.00,0.00,0.00,7,0,0,Yes
 Zone Information, N307 \- AV_\{13391\},0.0,0.00,0.00,0.00,58.98,-36.16,12.04,1,1,1,54.99,62.93,-39.01,-33.40,10.52,13.56,3.04,84.80,CeilingDiffuser,AdaptiveConvectionAlgorithm,27.86,0.00,0.00,0.00,14,0,0,Yes
 Zone Information, N309 \- BREAKROOM_\{13384\},0.0,0.00,0.00,0.00,55.28,-40.72,12.04,1,1,1,51.92,59.13,-43.18,-38.38,10.52,13.56,3.04,64.16,CeilingDiffuser,AdaptiveConvectionAlgorithm,21.08,0.00,0.00,0.00,11,0,0,Yes
 Zone Information, N310 \- MOTHER\'S ROOM_\{13377\},0.0,0.00,0.00,0.00,53.69,-37.62,12.04,1,1,1,51.39,56.00,-39.98,-35.26,10.52,13.56,3.04,44.12,CeilingDiffuser,AdaptiveConvectionAlgorithm,14.49,0.00,0.00,0.00,7,0,0,Yes
 Zone Information, N313A INTERIOR \- OPEN OFFICE_\{13370\},0.0,0.00,0.00,0.00,36.41,-36.94,12.04,1,1,1,16.72,51.65,-46.38,-27.31,10.52,13.56,3.04,869.87,CeilingDiffuser,AdaptiveConvectionAlgorithm,285.77,0.00,0.00,0.00,37,0,0,Yes
 Zone Information, N313A PERIMETER \- OPEN OFFICE_\{13363\},0.0,0.00,0.00,0.00,32.76,-29.17,12.04,1,1,1,15.32,50.13,-36.26,-22.06,10.52,13.56,3.04,570.83,CeilingDiffuser,AdaptiveConvectionAlgorithm,187.52,105.14,105.14,0.00,12,0,0,Yes
 Zone Information, N313B INTERIOR \- OPEN OFFICE_\{13356\},0.0,0.00,0.00,0.00,65.43,-26.25,12.04,1,1,1,50.13,80.72,-32.99,-19.52,10.52,13.56,3.04,538.43,CeilingDiffuser,AdaptiveConvectionAlgorithm,176.89,0.00,0.00,0.00,15,0,0,Yes
 Zone Information, N313B PERIMETER \- OPEN OFFICE_\{13349\},0.0,0.00,0.00,0.00,63.97,-20.78,12.04,1,1,1,48.72,79.20,-27.31,-14.24,10.52,13.56,3.04,499.62,CeilingDiffuser,AdaptiveConvectionAlgorithm,164.14,91.51,91.51,0.00,8,0,0,Yes
 Zone Information, N315 \- COPY_\{13342\},0.0,0.00,0.00,0.00,47.32,-35.70,12.04,1,1,1,45.67,48.50,-37.54,-33.83,10.52,13.56,3.04,23.26,CeilingDiffuser,AdaptiveConvectionAlgorithm,7.64,0.00,0.00,0.00,8,0,0,Yes
 Zone Information, N316 \- BOOTH_\{13335\},0.0,0.00,0.00,0.00,45.00,-36.36,12.04,1,1,1,43.52,46.47,-38.12,-34.59,10.52,13.56,3.04,20.74,CeilingDiffuser,AdaptiveConvectionAlgorithm,6.81,0.00,0.00,0.00,7,0,0,Yes
 Zone Information, N317A \- UNCONDITIONED_\{13328\},0.0,0.00,0.00,0.00,45.98,-41.27,12.04,1,1,1,44.32,47.65,-44.84,-37.71,10.52,13.56,3.04,33.59,CeilingDiffuser,AdaptiveConvectionAlgorithm,11.03,0.00,0.00,0.00,8,0,0,Yes
 Zone Information, N317B \- UNCONDITIONED_\{13321\},0.0,0.00,0.00,0.00,47.53,-40.37,12.04,1,1,1,45.85,48.46,-44.43,-37.01,10.52,13.56,3.04,36.58,CeilingDiffuser,AdaptiveConvectionAlgorithm,12.02,0.00,0.00,0.00,7,0,0,Yes
 Zone Information, N317C \- UNCONDITIONED_\{13314\},0.0,0.00,0.00,0.00,32.52,-44.98,12.04,1,1,1,31.17,33.86,-48.38,-41.58,10.52,13.56,3.04,19.95,CeilingDiffuser,AdaptiveConvectionAlgorithm,6.56,0.00,0.00,0.00,10,0,0,Yes
 Zone Information, N318 \- OFFICE_\{13307\},0.0,0.00,0.00,0.00,43.98,-43.00,12.04,1,1,1,41.84,46.12,-45.66,-40.34,10.52,13.56,3.04,45.05,CeilingDiffuser,AdaptiveConvectionAlgorithm,14.80,0.00,0.00,0.00,6,0,0,Yes
 Zone Information, N319 \- OFFICE_\{13300\},0.0,0.00,0.00,0.00,40.91,-43.82,12.04,1,1,1,38.77,43.05,-46.49,-41.16,10.52,13.56,3.04,45.28,CeilingDiffuser,AdaptiveConvectionAlgorithm,14.87,0.00,0.00,0.00,8,0,0,Yes
 Zone Information, N320 \- OFFICE_\{13293\},0.0,0.00,0.00,0.00,37.82,-44.65,12.04,1,1,1,35.67,39.97,-47.32,-41.98,10.52,13.56,3.04,45.51,CeilingDiffuser,AdaptiveConvectionAlgorithm,14.95,0.00,0.00,0.00,7,0,0,Yes
 Zone Information, N321 \- OFFICE_\{13286\},0.0,0.00,0.00,0.00,34.71,-45.44,12.04,1,1,1,32.65,36.88,-48.13,-42.81,10.52,13.56,3.04,44.39,CeilingDiffuser,AdaptiveConvectionAlgorithm,14.58,0.00,0.00,0.00,9,0,0,Yes
 Zone Information, N326 \- OPEN OFFICE_\{13279\},0.0,0.00,0.00,0.00,21.41,-46.79,12.04,1,1,1,12.60,28.73,-54.76,-37.17,10.52,13.56,3.04,475.00,CeilingDiffuser,AdaptiveConvectionAlgorithm,156.04,51.72,51.72,0.00,18,0,0,Yes
 Zone Information, N327 \- EXECUTIVE OFFICE_\{13272\},0.0,0.00,0.00,0.00,18.61,-52.28,12.04,1,1,1,15.65,21.66,-55.81,-48.51,10.52,13.56,3.04,87.55,CeilingDiffuser,AdaptiveConvectionAlgorithm,28.76,32.96,23.69,9.27,8,1,0,Yes
 Zone Information, N328 \- EXECUTIVE OFFICE_\{13265\},0.0,0.00,0.00,0.00,13.96,-34.69,12.04,1,1,1,10.96,16.96,-38.33,-31.04,10.52,13.56,3.04,87.10,CeilingDiffuser,AdaptiveConvectionAlgorithm,28.61,32.96,32.96,0.00,7,0,0,Yes
 Zone Information, N329 \- EXECUTIVE OFFICE_\{13258\},0.0,0.00,0.00,0.00,84.26,-15.75,12.04,1,1,1,81.32,87.21,-19.35,-12.14,10.52,13.56,3.04,84.28,CeilingDiffuser,AdaptiveConvectionAlgorithm,27.69,32.50,32.50,0.00,6,0,0,Yes
 Zone Information, N330 \- OPEN OFFICE_\{13251\},0.0,0.00,0.00,0.00,82.32,-26.96,12.04,1,1,1,76.35,90.07,-38.79,-13.29,10.52,13.56,3.04,566.03,CeilingDiffuser,AdaptiveConvectionAlgorithm,185.95,67.06,67.06,0.00,22,0,0,Yes
 Zone Information, N331 \- EXECUTIVE OFFICE_\{13244\},0.0,0.00,0.00,0.00,88.73,-32.53,12.04,1,1,1,85.79,91.68,-36.38,-28.85,10.52,13.56,3.04,86.54,CeilingDiffuser,AdaptiveConvectionAlgorithm,28.43,32.42,32.42,0.00,6,0,0,Yes
 Zone Information, N334 \- OFFICE_\{13237\},0.0,0.00,0.00,0.00,75.46,-28.29,12.04,1,1,1,73.86,77.14,-29.99,-26.37,10.52,13.56,3.04,24.00,CeilingDiffuser,AdaptiveConvectionAlgorithm,7.88,0.00,0.00,0.00,7,0,0,Yes
 Zone Information, N335 \- OFFICE_\{13230\},0.0,0.00,0.00,0.00,71.99,-29.12,12.04,1,1,1,69.33,74.66,-31.21,-27.04,10.52,13.56,3.04,43.74,CeilingDiffuser,AdaptiveConvectionAlgorithm,14.36,0.00,0.00,0.00,7,0,0,Yes
 Zone Information, N336 \- OFFICE_\{13223\},0.0,0.00,0.00,0.00,67.45,-30.34,12.04,1,1,1,64.78,70.12,-32.43,-28.25,10.52,13.56,3.04,43.89,CeilingDiffuser,AdaptiveConvectionAlgorithm,14.41,0.00,0.00,0.00,8,0,0,Yes
 Zone Information, N337 \- OFFICE_\{13216\},0.0,0.00,0.00,0.00,62.84,-31.63,12.04,1,1,1,60.24,65.57,-33.64,-29.47,10.52,13.56,3.04,43.68,CeilingDiffuser,AdaptiveConvectionAlgorithm,14.35,0.00,0.00,0.00,7,0,0,Yes
 Zone Information, N338 \- OFFICE_\{13209\},0.0,0.00,0.00,0.00,58.30,-32.85,12.04,1,1,1,55.70,61.04,-34.86,-30.68,10.52,13.56,3.04,43.84,CeilingDiffuser,AdaptiveConvectionAlgorithm,14.40,0.00,0.00,0.00,6,0,0,Yes
 Zone Information, N339 \- OFFICE_\{13202\},0.0,0.00,0.00,0.00,53.66,-34.07,12.04,1,1,1,51.02,56.49,-36.22,-31.90,10.52,13.56,3.04,47.14,CeilingDiffuser,AdaptiveConvectionAlgorithm,15.48,0.00,0.00,0.00,8,0,0,Yes
 Zone Information, N389 \- ELEVATOR 5_\{13195\},0.0,0.00,0.00,0.00,26.66,-41.42,12.04,1,1,1,24.49,28.84,-43.24,-39.59,10.52,13.56,3.04,31.72,CeilingDiffuser,AdaptiveConvectionAlgorithm,10.42,0.00,0.00,0.00,7,0,0,Yes
 Zone Information, N398 \- STAIR 5_\{13188\},0.0,0.00,0.00,0.00,27.93,-46.11,12.04,1,1,1,25.21,30.64,-49.96,-42.27,10.52,13.56,3.04,79.62,CeilingDiffuser,AdaptiveConvectionAlgorithm,26.08,0.00,0.00,0.00,10,0,0,Yes
 Zone Information, N399 \- STAIR 6_\{13181\},0.0,0.00,0.00,0.00,77.46,-33.00,12.04,1,1,1,74.78,79.93,-36.68,-29.06,10.52,13.56,3.04,73.46,CeilingDiffuser,AdaptiveConvectionAlgorithm,24.12,0.00,0.00,0.00,10,0,0,Yes
 Zone Information, N401 \- CORRIDOR_\{13174\},0.0,0.00,0.00,0.00,56.41,-41.90,16.62,1,1,1,27.91,80.56,-52.80,-35.04,15.09,18.14,3.05,671.33,CeilingDiffuser,AdaptiveConvectionAlgorithm,220.09,33.09,18.75,14.34,48,2,0,Yes
 Zone Information, N402 \- JANITOR_\{13167\},0.0,0.00,0.00,0.00,74.63,-33.66,16.61,1,1,1,73.20,76.07,-35.57,-31.76,15.09,18.14,3.05,21.31,CeilingDiffuser,AdaptiveConvectionAlgorithm,7.00,0.00,0.00,0.00,6,0,0,Yes
 Zone Information, N402A \- UNCONDITIONED_\{13160\},0.0,0.00,0.00,0.00,69.03,-32.07,16.61,1,1,1,61.92,75.19,-34.18,-29.93,15.09,18.14,3.05,41.19,CeilingDiffuser,AdaptiveConvectionAlgorithm,13.52,0.00,0.00,0.00,16,0,0,Yes
 Zone Information, N403 \- WOMEN\'S RESTROOM_\{13153\},0.0,0.00,0.00,0.00,71.05,-35.24,16.62,1,1,1,67.52,74.51,-38.04,-31.29,15.09,18.14,3.05,97.64,CeilingDiffuser,AdaptiveConvectionAlgorithm,31.97,0.00,0.00,0.00,12,0,0,Yes
 Zone Information, N404 \- MEN\'S RESTROOM_\{13146\},0.0,0.00,0.00,0.00,65.79,-36.74,16.62,1,1,1,62.14,68.85,-40.06,-32.74,15.09,18.14,3.05,97.06,CeilingDiffuser,AdaptiveConvectionAlgorithm,31.85,0.00,0.00,0.00,9,0,0,Yes
 Zone Information, N405 \- ELECTRIC ROOM_\{13139\},0.0,0.00,0.00,0.00,61.84,-39.02,16.62,1,1,1,59.96,63.72,-40.86,-37.18,15.09,18.14,3.05,28.08,CeilingDiffuser,AdaptiveConvectionAlgorithm,9.20,0.00,0.00,0.00,6,0,0,Yes
 Zone Information, N407 \- AV_\{13132\},0.0,0.00,0.00,0.00,58.97,-36.19,16.62,1,1,1,55.01,62.94,-39.03,-33.35,15.09,18.14,3.05,86.29,CeilingDiffuser,AdaptiveConvectionAlgorithm,27.99,0.00,0.00,0.00,12,0,0,Yes
 Zone Information, N409 \- BREAK ROOM_\{13125\},0.0,0.00,0.00,0.00,55.57,-40.75,16.62,1,1,1,52.39,59.14,-43.10,-38.40,15.09,18.14,3.05,59.76,CeilingDiffuser,AdaptiveConvectionAlgorithm,19.55,0.00,0.00,0.00,7,0,0,Yes
 Zone Information, N410 \- FILES ROOM_\{13118\},0.0,0.00,0.00,0.00,53.72,-37.60,16.62,1,1,1,51.40,56.03,-40.00,-35.20,15.09,18.14,3.05,45.08,CeilingDiffuser,AdaptiveConvectionAlgorithm,14.80,0.00,0.00,0.00,9,0,0,Yes
 Zone Information, N412 \- STORAGE_\{13111\},0.0,0.00,0.00,0.00,46.80,-40.66,16.62,1,1,1,44.33,48.47,-44.77,-36.96,15.09,18.14,3.05,70.04,CeilingDiffuser,AdaptiveConvectionAlgorithm,22.93,0.00,0.00,0.00,10,0,0,Yes
 Zone Information, N414 WEST END \- OPEN OFFICE_\{13104\},0.0,0.00,0.00,0.00,23.37,-35.05,16.62,1,1,1,18.77,29.38,-41.80,-27.98,15.09,18.14,3.05,288.14,CeilingDiffuser,AdaptiveConvectionAlgorithm,94.60,25.02,25.02,0.00,16,0,0,Yes
 Zone Information, N414A INTERIOR \- OPEN OFFICE_\{13097\},0.0,0.00,0.00,0.00,38.96,-36.70,16.62,1,1,1,28.09,52.29,-46.46,-27.92,15.09,18.14,3.05,450.61,CeilingDiffuser,AdaptiveConvectionAlgorithm,147.72,0.00,0.00,0.00,23,0,0,Yes
 Zone Information, N414A PERIMETER \- OPEN OFFICE_\{13090\},0.0,0.00,0.00,0.00,38.84,-27.94,16.61,1,1,1,26.69,50.99,-34.00,-21.88,15.09,18.14,3.05,446.25,CeilingDiffuser,AdaptiveConvectionAlgorithm,146.50,71.63,71.63,0.00,9,0,0,Yes
 Zone Information, N414B INTERIOR \- OPEN OFFICE_\{13083\},0.0,0.00,0.00,0.00,66.04,-26.52,16.62,1,1,1,50.99,78.10,-32.78,-22.23,15.09,18.14,3.05,377.13,CeilingDiffuser,AdaptiveConvectionAlgorithm,123.81,0.00,0.00,0.00,13,0,0,Yes
 Zone Information, N414B PERIMETER \- OPEN OFFICE_\{13076\},0.0,0.00,0.00,0.00,64.61,-20.85,16.61,1,1,1,49.37,75.74,-27.92,-14.94,15.09,18.14,3.05,450.82,CeilingDiffuser,AdaptiveConvectionAlgorithm,148.00,81.52,81.52,0.00,10,0,0,Yes
 Zone Information, N415 \- COPY ROOM_\{13069\},0.0,0.00,0.00,0.00,47.06,-35.76,16.62,1,1,1,45.06,48.51,-37.66,-33.79,15.09,18.14,3.05,29.09,CeilingDiffuser,AdaptiveConvectionAlgorithm,9.55,0.00,0.00,0.00,9,0,0,Yes
 Zone Information, N416 \- MECHANICAL_\{13062\},0.0,0.00,0.00,0.00,38.53,-43.17,16.61,1,1,1,31.16,46.12,-48.30,-38.06,15.09,18.14,3.05,288.42,CeilingDiffuser,AdaptiveConvectionAlgorithm,94.68,0.00,0.00,0.00,16,0,0,Yes
 Zone Information, N417 \- OFFICE_\{13055\},0.0,0.00,0.00,0.00,43.27,-36.73,16.62,1,1,1,40.48,45.85,-38.88,-34.72,15.09,18.14,3.05,44.01,CeilingDiffuser,AdaptiveConvectionAlgorithm,14.45,0.00,0.00,0.00,8,0,0,Yes
 Zone Information, N418 \- OFFICE_\{13048\},0.0,0.00,0.00,0.00,38.61,-38.02,16.61,1,1,1,35.96,41.27,-40.10,-35.95,15.09,18.14,3.05,43.39,CeilingDiffuser,AdaptiveConvectionAlgorithm,14.25,0.00,0.00,0.00,6,0,0,Yes
 Zone Information, N419 \- OFFICE_\{13041\},0.0,0.00,0.00,0.00,34.07,-39.24,16.61,1,1,1,31.39,36.74,-41.32,-37.16,15.09,18.14,3.05,43.78,CeilingDiffuser,AdaptiveConvectionAlgorithm,14.37,0.00,0.00,0.00,6,0,0,Yes
 Zone Information, N423 \- OFFICE_\{13034\},0.0,0.00,0.00,0.00,24.75,-48.11,16.62,1,1,1,22.60,26.90,-50.76,-45.46,15.09,18.14,3.05,45.25,CeilingDiffuser,AdaptiveConvectionAlgorithm,14.86,0.00,0.00,0.00,6,0,0,Yes
 Zone Information, N424 \- OFFICE_\{13027\},0.0,0.00,0.00,0.00,23.55,-43.63,16.61,1,1,1,21.40,25.71,-46.29,-40.97,15.09,18.14,3.05,45.55,CeilingDiffuser,AdaptiveConvectionAlgorithm,14.95,0.00,0.00,0.00,7,0,0,Yes
 Zone Information, N425 \- EXECUTIVE OFFICE_\{13020\},0.0,0.00,0.00,0.00,18.67,-52.28,16.62,1,1,1,15.70,21.64,-55.81,-48.69,15.09,18.14,3.05,84.82,CeilingDiffuser,AdaptiveConvectionAlgorithm,27.85,32.43,23.23,9.20,6,1,0,Yes
 Zone Information, N426 \- OPEN OFFICE_\{13013\},0.0,0.00,0.00,0.00,21.59,-47.49,16.62,1,1,1,12.57,28.75,-54.77,-36.25,15.09,18.14,3.05,382.11,CeilingDiffuser,AdaptiveConvectionAlgorithm,125.30,52.87,52.87,0.00,19,0,0,Yes
 Zone Information, N427 \- EXECUTIVE OFFICE_\{13006\},0.0,0.00,0.00,0.00,13.92,-34.64,16.61,1,1,1,10.96,16.89,-38.22,-31.06,15.09,18.14,3.05,84.77,CeilingDiffuser,AdaptiveConvectionAlgorithm,27.81,32.58,32.58,0.00,6,0,0,Yes
 Zone Information, N428 \- EXECUTIVE OFFICE_\{12999\},0.0,0.00,0.00,0.00,18.21,-33.18,16.61,1,1,1,15.28,20.90,-37.06,-30.12,15.09,18.14,3.05,77.44,CeilingDiffuser,AdaptiveConvectionAlgorithm,25.42,11.02,11.02,0.00,11,0,0,Yes
 Zone Information, N429 \- OFFICE_\{12992\},0.0,0.00,0.00,0.00,73.86,-19.17,16.61,1,1,1,71.17,76.56,-21.31,-17.04,15.09,18.14,3.05,45.46,CeilingDiffuser,AdaptiveConvectionAlgorithm,14.93,0.00,0.00,0.00,6,0,0,Yes
 Zone Information, N430 \- OFFICE_\{12985\},0.0,0.00,0.00,0.00,74.69,-22.25,16.62,1,1,1,71.99,77.39,-24.40,-20.09,15.09,18.14,3.05,46.10,CeilingDiffuser,AdaptiveConvectionAlgorithm,15.14,0.00,0.00,0.00,8,0,0,Yes
 Zone Information, N431 \- OFFICE_\{12978\},0.0,0.00,0.00,0.00,78.45,-17.95,16.61,1,1,1,75.74,81.15,-20.09,-15.81,15.09,18.14,3.05,45.77,CeilingDiffuser,AdaptiveConvectionAlgorithm,15.03,0.00,0.00,0.00,7,0,0,Yes
 Zone Information, N432 \- OFFICE_\{12971\},0.0,0.00,0.00,0.00,79.25,-21.00,16.61,1,1,1,76.56,81.98,-23.18,-18.86,15.09,18.14,3.05,46.42,CeilingDiffuser,AdaptiveConvectionAlgorithm,15.24,0.00,0.00,0.00,8,0,0,Yes
 Zone Information, N433 \- EXECUTIVE OFFICE_\{12964\},0.0,0.00,0.00,0.00,84.23,-15.75,16.62,1,1,1,81.27,87.20,-19.36,-12.14,15.09,18.14,3.05,85.21,CeilingDiffuser,AdaptiveConvectionAlgorithm,27.97,32.72,32.72,0.00,7,0,0,Yes
 Zone Information, N434 \- OPEN OFFICE_\{12957\},0.0,0.00,0.00,0.00,82.29,-26.04,16.62,1,1,1,75.18,90.12,-38.78,-13.30,15.09,18.14,3.05,424.67,CeilingDiffuser,AdaptiveConvectionAlgorithm,139.36,75.91,75.91,0.00,29,0,0,Yes
 Zone Information, N435 \- EXECUTIVE OFFICE_\{12950\},0.0,0.00,0.00,0.00,88.76,-32.62,16.62,1,1,1,85.86,91.68,-36.38,-29.03,15.09,18.14,3.05,83.70,CeilingDiffuser,AdaptiveConvectionAlgorithm,27.48,31.90,31.90,0.00,6,0,0,Yes
 Zone Information, N437 \- OFFICE_\{12943\},0.0,0.00,0.00,0.00,81.72,-33.80,16.62,1,1,1,79.20,84.52,-35.78,-31.52,15.09,18.14,3.05,44.90,CeilingDiffuser,AdaptiveConvectionAlgorithm,14.74,0.00,0.00,0.00,7,0,0,Yes
 Zone Information, N438 \- HUDDLE_\{12936\},0.0,0.00,0.00,0.00,80.97,-30.31,16.62,1,1,1,78.23,83.70,-32.72,-27.90,15.09,18.14,3.05,53.10,CeilingDiffuser,AdaptiveConvectionAlgorithm,17.43,0.00,0.00,0.00,8,0,0,Yes
 Zone Information, N440 \- BOOTH_\{12929\},0.0,0.00,0.00,0.00,80.08,-26.89,16.62,1,1,1,78.40,81.68,-28.85,-25.12,15.09,18.14,3.05,24.63,CeilingDiffuser,AdaptiveConvectionAlgorithm,8.00,0.00,0.00,0.00,6,0,0,Yes
 Zone Information, N441 \- OFFICE_\{12922\},0.0,0.00,0.00,0.00,76.69,-27.99,16.61,1,1,1,73.91,79.22,-29.93,-25.78,15.09,18.14,3.05,43.45,CeilingDiffuser,AdaptiveConvectionAlgorithm,14.27,0.00,0.00,0.00,11,0,0,Yes
 Zone Information, N442 \- OFFICE_\{12915\},0.0,0.00,0.00,0.00,72.02,-29.07,16.62,1,1,1,69.34,74.70,-31.15,-26.99,15.09,18.14,3.05,43.88,CeilingDiffuser,AdaptiveConvectionAlgorithm,14.41,0.00,0.00,0.00,8,0,0,Yes
 Zone Information, N443 \- OFFICE_\{12908\},0.0,0.00,0.00,0.00,67.44,-30.30,16.62,1,1,1,64.75,70.13,-32.38,-28.21,15.09,18.14,3.05,44.03,CeilingDiffuser,AdaptiveConvectionAlgorithm,14.35,0.00,0.00,0.00,7,0,0,Yes
 Zone Information, N444 \- OFFICE_\{12901\},0.0,0.00,0.00,0.00,62.89,-31.52,16.61,1,1,1,60.23,65.54,-33.59,-29.44,15.09,18.14,3.05,43.40,CeilingDiffuser,AdaptiveConvectionAlgorithm,14.24,0.00,0.00,0.00,8,0,0,Yes
 Zone Information, N445 \- OFFICE_\{12894\},0.0,0.00,0.00,0.00,58.36,-32.73,16.62,1,1,1,55.69,61.02,-34.81,-30.65,15.09,18.14,3.05,43.60,CeilingDiffuser,AdaptiveConvectionAlgorithm,14.31,0.00,0.00,0.00,7,0,0,Yes
 Zone Information, N446 \- OFFICE_\{12887\},0.0,0.00,0.00,0.00,53.66,-34.03,16.62,1,1,1,51.06,56.48,-36.17,-31.87,15.09,18.14,3.05,46.60,CeilingDiffuser,AdaptiveConvectionAlgorithm,15.27,0.00,0.00,0.00,9,0,0,Yes
 Zone Information, N489 \- ELEVATOR 5_\{12880\},0.0,0.00,0.00,0.00,26.60,-41.37,16.62,1,1,1,24.39,28.81,-43.22,-39.53,15.09,18.14,3.05,32.57,CeilingDiffuser,AdaptiveConvectionAlgorithm,10.69,0.00,0.00,0.00,9,0,0,Yes
 Zone Information, N498 \- STAIR 5_\{12873\},0.0,0.00,0.00,0.00,27.86,-46.07,16.61,1,1,1,25.11,30.61,-49.92,-42.22,15.09,18.14,3.05,81.10,CeilingDiffuser,AdaptiveConvectionAlgorithm,26.63,0.00,0.00,0.00,11,0,0,Yes
 Zone Information, N499 \- STAIR 6_\{12866\},0.0,0.00,0.00,0.00,77.57,-32.90,16.62,1,1,1,74.70,80.00,-36.64,-28.99,15.09,18.14,3.05,76.63,CeilingDiffuser,AdaptiveConvectionAlgorithm,25.16,0.00,0.00,0.00,15,0,0,Yes
 Zone Information, N500 \- UNCONDITIONED SPACE_\{12859\},0.0,0.00,0.00,0.00,69.09,-32.16,21.19,1,1,1,61.95,75.23,-34.19,-30.08,19.66,22.71,3.05,34.59,CeilingDiffuser,AdaptiveConvectionAlgorithm,11.24,0.00,0.00,0.00,11,0,0,Yes
 Zone Information, N500A \- JANITOR_\{12852\},0.0,0.00,0.00,0.00,74.67,-33.70,21.19,1,1,1,73.19,76.14,-35.67,-31.73,19.66,22.71,3.05,22.61,CeilingDiffuser,AdaptiveConvectionAlgorithm,7.36,0.00,0.00,0.00,8,0,0,Yes
 Zone Information, N501 \- CORRIDOR_\{12845\},0.0,0.00,0.00,0.00,54.90,-42.28,21.19,1,1,1,27.88,80.54,-52.81,-35.12,19.66,22.71,3.05,688.99,CeilingDiffuser,AdaptiveConvectionAlgorithm,225.75,104.03,89.62,14.41,48,2,0,Yes
 Zone Information, N503 \- WOMEN\'S RESTROOM_\{12838\},0.0,0.00,0.00,0.00,71.07,-35.31,21.19,1,1,1,67.55,74.52,-38.11,-31.29,19.66,22.71,3.05,97.57,CeilingDiffuser,AdaptiveConvectionAlgorithm,32.01,0.00,0.00,0.00,11,0,0,Yes
 Zone Information, N504 \- MEN\'S RESTROOM_\{12831\},0.0,0.00,0.00,0.00,65.74,-36.68,21.19,1,1,1,62.13,68.87,-40.13,-32.74,19.66,22.71,3.05,98.08,CeilingDiffuser,AdaptiveConvectionAlgorithm,32.13,0.00,0.00,0.00,11,0,0,Yes
 Zone Information, N505 \- ELECTRICAL ROOM_\{12824\},0.0,0.00,0.00,0.00,61.82,-39.03,21.18,1,1,1,59.93,63.72,-40.93,-37.13,19.66,22.71,3.05,29.29,CeilingDiffuser,AdaptiveConvectionAlgorithm,9.61,0.00,0.00,0.00,8,0,0,Yes
 Zone Information, N507 \- AV_\{12817\},0.0,0.00,0.00,0.00,58.98,-36.25,21.19,1,1,1,55.03,62.92,-38.99,-33.52,19.66,22.71,3.05,81.69,CeilingDiffuser,AdaptiveConvectionAlgorithm,26.73,0.00,0.00,0.00,12,0,0,Yes
 Zone Information, N509 \-BREAKROOM_\{12810\},0.0,0.00,0.00,0.00,55.43,-40.56,21.18,1,1,1,51.86,59.14,-43.20,-38.36,19.66,22.71,3.05,68.78,CeilingDiffuser,AdaptiveConvectionAlgorithm,22.57,0.00,0.00,0.00,11,0,0,Yes
 Zone Information, N510 \- ELEVATOR MACHINE ROOM_\{12803\},0.0,0.00,0.00,0.00,53.49,-37.57,21.19,1,1,1,51.44,55.93,-39.82,-35.37,19.66,22.71,3.05,41.99,CeilingDiffuser,AdaptiveConvectionAlgorithm,13.78,0.00,0.00,0.00,7,0,0,Yes
 Zone Information, N513 \- STORAGE_\{12796\},0.0,0.00,0.00,0.00,46.67,-40.66,21.19,1,1,1,44.38,48.49,-44.84,-37.12,19.66,22.71,3.05,68.48,CeilingDiffuser,AdaptiveConvectionAlgorithm,22.47,0.00,0.00,0.00,9,0,0,Yes
 Zone Information, N514 \- COPY ROOM_\{12789\},0.0,0.00,0.00,0.00,47.40,-35.68,21.19,1,1,1,45.82,48.54,-37.62,-33.79,19.66,22.71,3.05,23.04,CeilingDiffuser,AdaptiveConvectionAlgorithm,7.48,0.00,0.00,0.00,8,0,0,Yes
 Zone Information, N515 \- BOOTH_\{12782\},0.0,0.00,0.00,0.00,45.29,-36.32,21.18,1,1,1,43.93,46.65,-38.12,-34.52,19.66,22.71,3.05,19.16,CeilingDiffuser,AdaptiveConvectionAlgorithm,6.29,0.00,0.00,0.00,8,0,0,Yes
 Zone Information, N516 \- OFFICE_\{12775\},0.0,0.00,0.00,0.00,42.21,-37.25,21.19,1,1,1,39.39,44.76,-39.34,-35.03,19.66,22.71,3.05,46.00,CeilingDiffuser,AdaptiveConvectionAlgorithm,15.02,0.00,0.00,0.00,9,0,0,Yes
 Zone Information, N517 \- OFFICE_\{12768\},0.0,0.00,0.00,0.00,37.47,-38.48,21.19,1,1,1,34.86,40.22,-40.55,-36.24,19.66,22.71,3.05,45.79,CeilingDiffuser,AdaptiveConvectionAlgorithm,15.02,0.00,0.00,0.00,10,0,0,Yes
 Zone Information, N518 \- OFFICE_\{12761\},0.0,0.00,0.00,0.00,33.01,-39.64,21.18,1,1,1,30.33,35.69,-41.77,-37.46,19.66,22.71,3.05,45.90,CeilingDiffuser,AdaptiveConvectionAlgorithm,15.06,0.00,0.00,0.00,8,0,0,Yes
 Zone Information, N521 \- PANTRY_\{12754\},0.0,0.00,0.00,0.00,23.31,-43.86,21.19,1,1,1,20.88,25.75,-46.48,-41.21,19.66,22.71,3.05,52.00,CeilingDiffuser,AdaptiveConvectionAlgorithm,16.82,0.00,0.00,0.00,8,0,0,Yes
 Zone Information, N521A \- CATERING PREP_\{12747\},0.0,0.00,0.00,0.00,24.44,-48.05,21.19,1,1,1,22.02,26.86,-50.63,-45.48,19.66,22.71,3.05,50.53,CeilingDiffuser,AdaptiveConvectionAlgorithm,16.58,0.00,0.00,0.00,8,0,0,Yes
 Zone Information, N523 \- CORRIDOR AND RECEPTION_\{12740\},0.0,0.00,0.00,0.00,21.45,-46.34,21.18,1,1,1,12.89,28.71,-55.81,-35.81,19.66,22.71,3.05,351.35,CeilingDiffuser,AdaptiveConvectionAlgorithm,115.23,60.39,47.43,12.95,28,2,0,Yes
 Zone Information, N524 \- OFFICE_\{12733\},0.0,0.00,0.00,0.00,17.81,-49.09,21.19,1,1,1,15.04,20.59,-51.96,-46.22,19.66,22.71,3.05,64.60,CeilingDiffuser,AdaptiveConvectionAlgorithm,21.20,14.46,14.46,0.00,7,0,0,Yes
 Zone Information, N525 \- OFFICE_\{12726\},0.0,0.00,0.00,0.00,16.62,-44.66,21.18,1,1,1,13.88,19.36,-47.38,-41.94,19.66,22.71,3.05,60.57,CeilingDiffuser,AdaptiveConvectionAlgorithm,19.87,13.52,13.52,0.00,6,0,0,Yes
 Zone Information, N527 \- BOARD ROOM_\{12719\},0.0,0.00,0.00,0.00,17.28,-34.56,21.19,1,1,1,10.96,22.92,-39.40,-29.46,19.66,22.71,3.05,233.78,CeilingDiffuser,AdaptiveConvectionAlgorithm,76.69,55.05,55.05,0.00,12,0,0,Yes
 Zone Information, N528 \- EXECUTIVE OFFICE_\{12712\},0.0,0.00,0.00,0.00,23.99,-31.94,21.18,1,1,1,21.21,26.76,-35.48,-28.40,19.66,22.71,3.05,77.40,CeilingDiffuser,AdaptiveConvectionAlgorithm,25.39,12.41,12.41,0.00,6,0,0,Yes
 Zone Information, N529 \- EXECUTIVE OFFICE_\{12705\},0.0,0.00,0.00,0.00,27.97,-30.93,21.19,1,1,1,25.14,30.74,-34.43,-27.33,19.66,22.71,3.05,78.56,CeilingDiffuser,AdaptiveConvectionAlgorithm,25.73,12.60,12.60,0.00,8,0,0,Yes
 Zone Information, N530A INTERIOR \- OPEN OFFICE_\{12698\},0.0,0.00,0.00,0.00,37.86,-36.05,21.19,1,1,1,22.83,52.38,-46.39,-27.16,19.66,22.71,3.05,577.04,CeilingDiffuser,AdaptiveConvectionAlgorithm,189.12,0.00,0.00,0.00,28,0,0,Yes
 Zone Information, N530A PERIMETER \- OPEN OFFICE_\{12691\},0.0,0.00,0.00,0.00,40.01,-27.24,21.18,1,1,1,29.13,50.88,-32.61,-21.86,19.66,22.71,3.05,351.49,CeilingDiffuser,AdaptiveConvectionAlgorithm,115.31,64.21,64.21,0.00,7,0,0,Yes
 Zone Information, N530B INTERIOR \- OPEN OFFICE_\{12684\},0.0,0.00,0.00,0.00,64.03,-26.60,21.19,1,1,1,50.88,74.80,-32.76,-21.15,19.66,22.71,3.05,410.23,CeilingDiffuser,AdaptiveConvectionAlgorithm,134.48,0.00,0.00,0.00,15,0,0,Yes
 Zone Information, N530B PERIMETER \- OPEN OFFICE_\{12677\},0.0,0.00,0.00,0.00,59.02,-22.13,21.19,1,1,1,49.46,68.57,-27.16,-17.10,19.66,22.71,3.05,306.74,CeilingDiffuser,AdaptiveConvectionAlgorithm,100.62,55.84,55.84,0.00,6,0,0,Yes
 Zone Information, N531 \- EXECUTIVE OFFICE_\{12670\},0.0,0.00,0.00,0.00,70.36,-19.09,21.19,1,1,1,67.14,73.30,-22.42,-15.83,19.66,22.71,3.05,82.21,CeilingDiffuser,AdaptiveConvectionAlgorithm,26.97,14.94,14.94,0.00,9,0,0,Yes
 Zone Information, N532 \- OFFICE_\{12663\},0.0,0.00,0.00,0.00,74.19,-17.51,21.19,1,1,1,71.87,76.51,-20.13,-14.89,19.66,22.71,3.05,48.96,CeilingDiffuser,AdaptiveConvectionAlgorithm,16.06,10.99,10.99,0.00,9,0,0,Yes
 Zone Information, N533 \- OPEN OFFICE_\{12656\},0.0,0.00,0.00,0.00,80.40,-26.30,21.19,1,1,1,74.10,86.09,-38.79,-13.60,19.66,22.71,3.05,330.31,CeilingDiffuser,AdaptiveConvectionAlgorithm,108.25,33.05,33.05,0.00,33,0,0,Yes
 Zone Information, N534 \- PRESIDENT OFFICE_\{12649\},0.0,0.00,0.00,0.00,83.98,-18.63,21.19,1,1,1,80.15,88.16,-23.58,-12.14,19.66,22.71,3.05,173.84,CeilingDiffuser,AdaptiveConvectionAlgorithm,57.03,47.48,47.48,0.00,15,0,0,Yes
 Zone Information, N535 \- OFFICE_\{12642\},0.0,0.00,0.00,0.00,85.58,-24.31,21.18,1,1,1,82.92,89.39,-27.85,-21.75,19.66,22.71,3.05,84.53,CeilingDiffuser,AdaptiveConvectionAlgorithm,27.73,14.43,14.43,0.00,12,0,0,Yes
 Zone Information, N536 \- OFFICE_\{12635\},0.0,0.00,0.00,0.00,87.21,-29.67,21.19,1,1,1,83.67,90.71,-32.78,-26.32,19.66,22.71,3.05,92.00,CeilingDiffuser,AdaptiveConvectionAlgorithm,30.18,15.54,15.54,0.00,7,0,0,Yes
 Zone Information, N537 \- OFFICE_\{12628\},0.0,0.00,0.00,0.00,88.30,-33.97,21.18,1,1,1,84.99,91.68,-36.90,-31.24,19.66,22.71,3.05,72.34,CeilingDiffuser,AdaptiveConvectionAlgorithm,23.73,29.56,29.56,0.00,7,0,0,Yes
 Zone Information, N538 \- HUDDLE_\{12621\},0.0,0.00,0.00,0.00,75.99,-28.01,21.18,1,1,1,74.11,77.87,-29.88,-26.14,19.66,22.71,3.05,28.59,CeilingDiffuser,AdaptiveConvectionAlgorithm,9.36,0.00,0.00,0.00,7,0,0,Yes
 Zone Information, N538 \- OFFICE_\{12614\},0.0,0.00,0.00,0.00,80.60,-31.04,21.19,1,1,1,78.17,83.03,-33.87,-28.21,19.66,22.71,3.05,55.15,CeilingDiffuser,AdaptiveConvectionAlgorithm,18.09,0.00,0.00,0.00,8,0,0,Yes
 Zone Information, N539 \- HUDDLE_\{12607\},0.0,0.00,0.00,0.00,72.29,-29.18,21.19,1,1,1,69.31,74.90,-31.32,-26.94,19.66,22.71,3.05,48.47,CeilingDiffuser,AdaptiveConvectionAlgorithm,15.81,0.00,0.00,0.00,10,0,0,Yes
 Zone Information, N540 \- OFFICE_\{12600\},0.0,0.00,0.00,0.00,67.44,-30.38,21.19,1,1,1,64.74,70.14,-32.55,-28.22,19.66,22.71,3.05,46.31,CeilingDiffuser,AdaptiveConvectionAlgorithm,15.14,0.00,0.00,0.00,7,0,0,Yes
 Zone Information, N541 \- OFFICE_\{12593\},0.0,0.00,0.00,0.00,62.90,-31.60,21.19,1,1,1,60.23,65.57,-33.76,-29.45,19.66,22.71,3.05,45.69,CeilingDiffuser,AdaptiveConvectionAlgorithm,14.97,0.00,0.00,0.00,9,0,0,Yes
 Zone Information, N542 \- OFFICE_\{12586\},0.0,0.00,0.00,0.00,58.36,-32.82,21.19,1,1,1,55.68,61.06,-34.98,-30.66,19.66,22.71,3.05,46.08,CeilingDiffuser,AdaptiveConvectionAlgorithm,15.07,0.00,0.00,0.00,7,0,0,Yes
 Zone Information, N543 \- OFFICE_\{12579\},0.0,0.00,0.00,0.00,53.51,-34.26,21.18,1,1,1,51.06,56.50,-36.33,-31.88,19.66,22.71,3.05,48.96,CeilingDiffuser,AdaptiveConvectionAlgorithm,16.06,0.00,0.00,0.00,11,0,0,Yes
 Zone Information, N544 \- COPY ROOM_\{12572\},0.0,0.00,0.00,0.00,79.35,-27.32,21.19,1,1,1,77.08,81.77,-29.18,-25.11,19.66,22.71,3.05,38.97,CeilingDiffuser,AdaptiveConvectionAlgorithm,12.77,0.00,0.00,0.00,11,0,0,Yes
 Zone Information, N546 \- OFFICE_\{12565\},0.0,0.00,0.00,0.00,75.30,-21.68,21.19,1,1,1,73.02,77.58,-24.16,-19.20,19.66,22.71,3.05,45.75,CeilingDiffuser,AdaptiveConvectionAlgorithm,14.99,0.00,0.00,0.00,11,0,0,Yes
 Zone Information, N560 \- CONFERENCE_\{12558\},0.0,0.00,0.00,0.00,42.89,-42.17,21.19,1,1,1,39.63,46.15,-46.11,-38.23,19.66,22.71,3.05,102.54,CeilingDiffuser,AdaptiveConvectionAlgorithm,33.58,0.00,0.00,0.00,9,0,0,Yes
 Zone Information, N562 \- STORAGE_\{12551\},0.0,0.00,0.00,0.00,38.28,-42.07,21.18,1,1,1,35.83,40.74,-44.63,-39.50,19.66,22.71,3.05,51.08,CeilingDiffuser,AdaptiveConvectionAlgorithm,16.76,0.00,0.00,0.00,6,0,0,Yes
 Zone Information, N563 \- CONFERENCE_\{12544\},0.0,0.00,0.00,0.00,34.50,-44.08,21.18,1,1,1,31.16,37.60,-48.38,-40.52,19.66,22.71,3.05,100.90,CeilingDiffuser,AdaptiveConvectionAlgorithm,33.11,0.00,0.00,0.00,11,0,0,Yes
 Zone Information, N589 \- ELEVATOR 5_\{12537\},0.0,0.00,0.00,0.00,26.56,-41.35,21.19,1,1,1,24.41,28.84,-43.21,-39.50,19.66,22.71,3.05,32.93,CeilingDiffuser,AdaptiveConvectionAlgorithm,10.60,0.00,0.00,0.00,7,0,0,Yes
 Zone Information, N598 \- STAIR 5_\{12530\},0.0,0.00,0.00,0.00,27.81,-46.41,21.19,1,1,1,25.14,30.66,-49.98,-42.22,19.66,22.71,3.05,81.90,CeilingDiffuser,AdaptiveConvectionAlgorithm,26.80,0.00,0.00,0.00,12,0,0,Yes
 Zone Information, N599 \- STAIR 6_\{12523\},0.0,0.00,0.00,0.00,77.41,-32.46,21.19,1,1,1,74.75,79.94,-36.69,-29.02,19.66,22.71,3.05,74.67,CeilingDiffuser,AdaptiveConvectionAlgorithm,24.49,0.00,0.00,0.00,15,0,0,Yes
 Zone Information, S101 \- CORRIDOR_\{12516\},0.0,0.00,0.00,0.00,68.90,-79.20,2.97,1,1,1,56.57,77.79,-82.68,-75.73,0.00,5.94,5.94,587.56,CeilingDiffuser,AdaptiveConvectionAlgorithm,98.86,18.07,13.39,4.68,24,1,0,Yes
 Zone Information, S102 \- CORRIDOR_\{12509\},0.0,0.00,0.00,0.00,82.54,-78.10,2.97,1,1,1,76.86,88.32,-79.33,-76.91,0.00,5.94,5.94,150.47,CeilingDiffuser,AdaptiveConvectionAlgorithm,25.32,82.45,49.62,32.83,10,4,0,Yes
 Zone Information, S103 \- FACILITIES_\{12502\},0.0,0.00,0.00,0.00,84.93,-82.41,2.97,1,1,1,81.54,88.32,-85.49,-79.33,0.00,5.94,5.94,247.39,CeilingDiffuser,AdaptiveConvectionAlgorithm,41.70,36.59,33.61,2.98,7,1,0,Yes
 Zone Information, S103A \- STORAGE_\{12495\},0.0,0.00,0.00,0.00,82.05,-87.46,2.97,1,1,1,79.57,84.45,-89.49,-85.49,0.00,5.94,5.94,109.74,CeilingDiffuser,AdaptiveConvectionAlgorithm,18.47,0.00,0.00,0.00,9,0,0,Yes
 Zone Information, S103B \- HUDDLE_\{12488\},0.0,0.00,0.00,0.00,86.39,-87.49,2.97,1,1,1,84.45,88.32,-89.49,-85.49,0.00,5.94,5.94,91.97,CeilingDiffuser,AdaptiveConvectionAlgorithm,15.47,23.76,23.76,0.00,6,0,0,Yes
 Zone Information, S104 \- MECHANICAL_\{12481\},0.0,0.00,0.00,0.00,83.49,-93.79,2.97,1,1,1,79.57,88.32,-97.99,-89.49,0.00,5.94,5.94,414.82,CeilingDiffuser,AdaptiveConvectionAlgorithm,69.79,96.34,89.35,6.99,9,1,0,Yes
 Zone Information, S105 \- ELECTRIC ROOM_\{12474\},0.0,0.00,0.00,0.00,75.74,-94.38,2.97,1,1,1,73.89,77.57,-98.56,-90.01,0.00,5.94,5.94,179.63,CeilingDiffuser,AdaptiveConvectionAlgorithm,30.22,19.81,17.67,0.00,11,1,0,Yes
 Zone Information, S106 \- DEMARK_\{12467\},0.0,0.00,0.00,0.00,71.65,-96.03,2.97,1,1,1,69.30,73.89,-98.89,-93.47,0.00,5.94,5.94,143.50,CeilingDiffuser,AdaptiveConvectionAlgorithm,24.14,27.33,25.20,0.00,11,1,0,Yes
 Zone Information, S107 \- MEN\'S RESTROOM_\{12460\},0.0,0.00,0.00,0.00,75.94,-86.24,2.97,1,1,1,73.89,77.79,-90.01,-82.68,0.00,5.94,5.94,164.78,CeilingDiffuser,AdaptiveConvectionAlgorithm,27.72,0.00,0.00,0.00,12,0,0,Yes
 Zone Information, S108 \- WOMEN\'S RESTROOM_\{12453\},0.0,0.00,0.00,0.00,72.25,-86.40,2.97,1,1,1,70.58,73.89,-90.01,-82.68,0.00,5.94,5.94,135.91,CeilingDiffuser,AdaptiveConvectionAlgorithm,22.87,0.00,0.00,0.00,13,0,0,Yes
 Zone Information, S109 \- JANITOR_\{12446\},0.0,0.00,0.00,0.00,74.53,-81.63,2.97,1,1,1,73.13,75.90,-82.68,-80.56,0.00,5.94,5.94,34.92,CeilingDiffuser,AdaptiveConvectionAlgorithm,5.88,0.00,0.00,0.00,9,0,0,Yes
 Zone Information, S110 \- SECURITY CONFERENCE_\{12439\},0.0,0.00,0.00,0.00,69.64,-80.83,2.97,1,1,1,67.41,71.88,-83.20,-78.76,0.00,5.94,5.94,101.93,CeilingDiffuser,AdaptiveConvectionAlgorithm,17.15,0.00,0.00,0.00,9,0,0,Yes
 Zone Information, S111 \- OPS CONTROL CENTER_\{12432\},0.0,0.00,0.00,0.00,66.20,-83.16,2.97,1,1,1,61.47,71.25,-85.75,-79.74,0.00,5.94,5.94,258.66,CeilingDiffuser,AdaptiveConvectionAlgorithm,43.52,0.00,0.00,0.00,18,0,0,Yes
 Zone Information, S112 \- HUDDLE_\{12425\},0.0,0.00,0.00,0.00,66.74,-87.17,2.97,1,1,1,64.43,69.05,-88.60,-85.75,0.00,5.94,5.94,78.08,CeilingDiffuser,AdaptiveConvectionAlgorithm,13.14,0.00,0.00,0.00,9,0,0,Yes
 Zone Information, S113 \- CORRIDOR_\{12418\},0.0,0.00,0.00,0.00,67.68,-89.11,2.97,1,1,1,62.57,70.58,-92.14,-85.40,0.00,5.94,5.94,132.04,CeilingDiffuser,AdaptiveConvectionAlgorithm,22.31,0.00,0.00,0.00,17,0,0,Yes
 Zone Information, S114 \- AV_\{12411\},0.0,0.00,0.00,0.00,63.40,-87.12,2.97,1,1,1,62.18,64.43,-88.60,-85.75,0.00,5.94,5.94,34.75,CeilingDiffuser,AdaptiveConvectionAlgorithm,5.85,0.00,0.00,0.00,8,0,0,Yes
 Zone Information, S115 \- SECURITY OFFICE_\{12404\},0.0,0.00,0.00,0.00,72.24,-91.74,2.97,1,1,1,70.58,73.89,-93.47,-90.01,0.00,5.94,5.94,67.99,CeilingDiffuser,AdaptiveConvectionAlgorithm,11.44,0.00,0.00,0.00,8,0,0,Yes
 Zone Information, S116 \- BADGE_\{12397\},0.0,0.00,0.00,0.00,67.55,-91.24,2.97,1,1,1,66.54,68.56,-92.14,-90.34,0.00,5.94,5.94,21.63,CeilingDiffuser,AdaptiveConvectionAlgorithm,3.64,0.00,0.00,0.00,8,0,0,Yes
 Zone Information, S117 \- STORAGE_\{12390\},0.0,0.00,0.00,0.00,68.77,-93.05,2.97,1,1,1,67.09,70.58,-94.07,-92.14,0.00,5.94,5.94,35.54,CeilingDiffuser,AdaptiveConvectionAlgorithm,5.98,0.00,0.00,0.00,10,0,0,Yes
 Zone Information, S118 \- TOILET_\{12383\},0.0,0.00,0.00,0.00,68.20,-95.56,2.97,1,1,1,67.09,69.30,-97.05,-94.07,0.00,5.94,5.94,38.61,CeilingDiffuser,AdaptiveConvectionAlgorithm,6.57,0.00,0.00,0.00,7,0,0,Yes
 Zone Information, S119 \- RECEPTION_\{12376\},0.0,0.00,0.00,0.00,63.66,-94.58,2.97,1,1,1,58.34,69.30,-99.32,-88.60,0.00,5.94,5.94,451.64,CeilingDiffuser,AdaptiveConvectionAlgorithm,75.98,67.29,58.26,0.00,23,4,0,Yes
 Zone Information, S120 _ DINING ROOM_\{12369\},0.0,0.00,0.00,0.00,44.10,-87.75,2.97,1,1,1,28.78,62.57,-99.32,-75.75,0.00,5.94,5.94,3701.79,CeilingDiffuser,AdaptiveConvectionAlgorithm,622.88,184.54,128.50,52.89,51,7,0,Yes
 Zone Information, S123 \- AV_\{12362\},0.0,0.00,0.00,0.00,30.28,-94.58,2.97,1,1,1,28.78,31.78,-96.10,-93.05,0.00,5.94,5.94,54.35,CeilingDiffuser,AdaptiveConvectionAlgorithm,9.14,0.00,0.00,0.00,7,0,0,Yes
 Zone Information, S124 \- FIRE PUMP_\{12355\},0.0,0.00,0.00,0.00,26.42,-95.14,2.97,1,1,1,23.90,28.78,-97.55,-93.05,0.00,5.94,5.94,120.50,CeilingDiffuser,AdaptiveConvectionAlgorithm,20.27,51.96,46.59,5.36,10,1,0,Yes
 Zone Information, S125 \- WOMEN\'S LOCKER_\{12348\},0.0,0.00,0.00,0.00,29.86,-90.90,2.97,1,1,1,27.92,31.78,-93.05,-88.85,0.00,5.94,5.94,96.31,CeilingDiffuser,AdaptiveConvectionAlgorithm,16.20,0.00,0.00,0.00,10,0,0,Yes
 Zone Information, S126 \- MEN\'S LOCKER_\{12341\},0.0,0.00,0.00,0.00,25.97,-90.96,2.97,1,1,1,23.90,27.92,-93.05,-88.85,0.00,5.94,5.94,100.51,CeilingDiffuser,AdaptiveConvectionAlgorithm,16.91,24.95,24.95,0.00,8,0,0,Yes
 Zone Information, S127 \- BREAK ROOM_\{12334\},0.0,0.00,0.00,0.00,28.00,-84.10,2.97,1,1,1,23.90,30.65,-88.85,-78.74,0.00,5.94,5.94,263.01,CeilingDiffuser,AdaptiveConvectionAlgorithm,44.25,30.35,30.35,0.00,13,0,0,Yes
 Zone Information, S128 \- MAIL ROOM_\{12327\},0.0,0.00,0.00,0.00,26.31,-80.32,2.97,1,1,1,23.90,28.69,-83.74,-77.09,0.00,5.94,5.94,174.46,CeilingDiffuser,AdaptiveConvectionAlgorithm,29.35,45.44,45.44,0.00,9,0,0,Yes
 Zone Information, S187 \- ELEVATOR 3_\{12320\},0.0,0.00,0.00,0.00,35.92,-80.57,2.97,1,1,1,34.51,37.32,-82.31,-78.83,0.00,5.94,5.94,58.12,CeilingDiffuser,AdaptiveConvectionAlgorithm,9.79,0.00,0.00,0.00,7,0,0,Yes
 Zone Information, S195 \- STAIR 2_\{12313\},0.0,0.00,0.00,0.00,79.66,-82.42,2.97,1,1,1,77.79,81.54,-86.01,-78.83,0.00,5.94,5.94,159.75,CeilingDiffuser,AdaptiveConvectionAlgorithm,26.94,0.00,0.00,0.00,12,0,0,Yes
 Zone Information, S195A \- CORRIDOR_\{12306\},0.0,0.00,0.00,0.00,78.46,-92.34,2.97,1,1,1,77.21,79.57,-98.24,-86.01,0.00,5.94,5.94,147.50,CeilingDiffuser,AdaptiveConvectionAlgorithm,24.82,14.10,11.60,0.00,13,1,0,Yes
 Zone Information, S197 \- STAIR 4_\{12299\},0.0,0.00,0.00,0.00,32.58,-82.42,2.97,1,1,1,30.65,34.51,-86.01,-78.83,0.00,5.94,5.94,164.63,CeilingDiffuser,AdaptiveConvectionAlgorithm,27.71,0.00,0.00,0.00,10,0,0,Yes
 Zone Information, S201 \- CORRIDOR_\{12292\},0.0,0.00,0.00,0.00,66.40,-79.35,7.46,1,1,1,49.93,80.49,-85.44,-75.45,5.94,8.99,3.05,456.13,CeilingDiffuser,AdaptiveConvectionAlgorithm,149.45,18.22,18.22,0.00,27,0,0,Yes
 Zone Information, S203 \- ELECTRIC_\{12285\},0.0,0.00,0.00,0.00,64.61,-83.72,7.47,1,1,1,62.98,66.24,-85.82,-81.62,5.94,8.99,3.05,41.88,CeilingDiffuser,AdaptiveConvectionAlgorithm,13.72,0.00,0.00,0.00,10,0,0,Yes
 Zone Information, S204 \- WOMEN\'S RSETROOM_\{12278\},0.0,0.00,0.00,0.00,67.90,-82.12,7.47,1,1,1,65.39,70.36,-85.82,-78.76,5.94,8.99,3.05,96.22,CeilingDiffuser,AdaptiveConvectionAlgorithm,31.53,0.00,0.00,0.00,13,0,0,Yes
 Zone Information, S205 \- MEN\'S RESTROOM_\{12271\},0.0,0.00,0.00,0.00,72.96,-82.44,7.47,1,1,1,70.36,75.43,-85.88,-78.76,5.94,8.99,3.05,100.65,CeilingDiffuser,AdaptiveConvectionAlgorithm,32.88,0.00,0.00,0.00,15,0,0,Yes
 Zone Information, S206 \- JANITOR_\{12264\},0.0,0.00,0.00,0.00,76.21,-83.76,7.47,1,1,1,74.74,77.68,-85.88,-81.63,5.94,8.99,3.05,38.13,CeilingDiffuser,AdaptiveConvectionAlgorithm,12.49,0.00,0.00,0.00,9,0,0,Yes
 Zone Information, S208 \- CORRIDOR_\{12257\},0.0,0.00,0.00,0.00,61.32,-92.77,7.46,1,1,1,57.91,65.62,-100.81,-85.44,5.94,8.99,3.05,233.63,CeilingDiffuser,AdaptiveConvectionAlgorithm,76.55,16.60,7.50,0.00,21,4,0,Yes
 Zone Information, S209 \- FOOD PREP_\{12250\},0.0,0.00,0.00,0.00,52.09,-83.27,7.47,1,1,1,47.85,58.32,-85.95,-79.67,5.94,8.99,3.05,117.11,CeilingDiffuser,AdaptiveConvectionAlgorithm,38.37,0.00,0.00,0.00,12,0,0,Yes
 Zone Information, S210 \- CAFE_\{12243\},0.0,0.00,0.00,0.00,53.37,-81.11,7.47,1,1,1,49.96,57.00,-82.85,-79.30,5.94,8.99,3.05,73.66,CeilingDiffuser,AdaptiveConvectionAlgorithm,24.13,0.00,0.00,0.00,7,0,0,Yes
 Zone Information, S211 \- MECHANICAL_\{12236\},0.0,0.00,0.00,0.00,43.91,-82.40,7.47,1,1,1,39.97,47.85,-85.95,-78.85,5.94,8.99,3.05,170.77,CeilingDiffuser,AdaptiveConvectionAlgorithm,55.95,0.00,0.00,0.00,9,0,0,Yes
 Zone Information, S212 \- CORRIDOR_\{12229\},0.0,0.00,0.00,0.00,40.85,-77.71,7.47,1,1,1,29.49,49.96,-79.67,-75.76,5.94,8.99,3.05,176.73,CeilingDiffuser,AdaptiveConvectionAlgorithm,57.89,0.00,0.00,0.00,13,0,0,Yes
 Zone Information, S213 \- A/V ROOM_\{12222\},0.0,0.00,0.00,0.00,38.66,-82.40,7.46,1,1,1,37.36,39.97,-85.95,-78.85,5.94,8.99,3.05,56.65,CeilingDiffuser,AdaptiveConvectionAlgorithm,18.56,0.00,0.00,0.00,6,0,0,Yes
 Zone Information, S214 \- FITNESS WAITING_\{12208\},0.0,0.00,0.00,0.00,72.16,-97.28,7.47,1,1,1,65.62,79.44,-100.64,-94.23,5.94,8.99,3.05,239.24,CeilingDiffuser,AdaptiveConvectionAlgorithm,78.39,42.29,26.73,15.57,16,2,0,Yes
 Zone Information, S214 \- FITNESS_\{12215\},0.0,0.00,0.00,0.00,83.84,-88.09,7.47,1,1,1,79.44,89.85,-99.54,-75.45,5.94,8.99,3.05,630.21,CeilingDiffuser,AdaptiveConvectionAlgorithm,206.42,129.82,70.14,59.68,18,3,0,Yes
 Zone Information, S215 \- GROUP FITNESS_\{12201\},0.0,0.00,0.00,0.00,77.60,-90.31,7.47,1,1,1,73.56,81.55,-94.84,-85.88,5.94,8.99,3.05,218.58,CeilingDiffuser,AdaptiveConvectionAlgorithm,71.62,0.00,0.00,0.00,18,0,0,Yes
 Zone Information, S218 \- WOMEN\'S LOCKER_\{12194\},0.0,0.00,0.00,0.00,70.51,-90.35,7.46,1,1,1,67.58,73.56,-94.23,-85.82,5.94,8.99,3.05,137.92,CeilingDiffuser,AdaptiveConvectionAlgorithm,45.19,0.00,0.00,0.00,17,0,0,Yes
 Zone Information, S219 \- MEN\'S LOCKER_\{12187\},0.0,0.00,0.00,0.00,65.83,-90.18,7.47,1,1,1,62.98,68.33,-94.23,-85.82,5.94,8.99,3.05,133.64,CeilingDiffuser,AdaptiveConvectionAlgorithm,43.71,0.00,0.00,0.00,15,0,0,Yes
 Zone Information, S221 EXTERIOR \- OPEN OFFICE_\{12180\},0.0,0.00,0.00,0.00,41.70,-97.94,7.46,1,1,1,26.83,54.29,-100.84,-95.20,5.94,8.99,3.05,405.10,CeilingDiffuser,AdaptiveConvectionAlgorithm,132.73,82.10,35.42,46.69,15,6,0,Yes
 Zone Information, S221 INTERIOR \- OPEN OFFICE_\{12173\},0.0,0.00,0.00,0.00,43.23,-91.79,7.47,1,1,1,26.83,57.91,-95.20,-89.11,5.94,8.99,3.05,508.37,CeilingDiffuser,AdaptiveConvectionAlgorithm,166.57,0.00,0.00,0.00,22,0,0,Yes
 Zone Information, S222 \- OPEN OFFICE_\{12166\},0.0,0.00,0.00,0.00,27.40,-80.18,7.47,1,1,1,22.38,31.71,-86.91,-75.44,5.94,8.99,3.05,300.94,CeilingDiffuser,AdaptiveConvectionAlgorithm,98.51,57.56,43.88,13.68,16,1,0,Yes
 Zone Information, S223 \- COPY ROOM_\{12159\},0.0,0.00,0.00,0.00,31.61,-87.59,7.47,1,1,1,30.76,32.45,-89.11,-85.95,5.94,8.99,3.05,16.36,CeilingDiffuser,AdaptiveConvectionAlgorithm,5.36,0.00,0.00,0.00,9,0,0,Yes
 Zone Information, S224 \- OFFICE_\{12152\},0.0,0.00,0.00,0.00,34.77,-87.43,7.47,1,1,1,32.45,37.12,-89.11,-85.95,5.94,8.99,3.05,44.92,CeilingDiffuser,AdaptiveConvectionAlgorithm,14.72,0.00,0.00,0.00,8,0,0,Yes
 Zone Information, S225 \- HUDDLE_\{12145\},0.0,0.00,0.00,0.00,39.48,-87.53,7.46,1,1,1,37.12,41.84,-89.11,-85.95,5.94,8.99,3.05,45.50,CeilingDiffuser,AdaptiveConvectionAlgorithm,14.91,0.00,0.00,0.00,8,0,0,Yes
 Zone Information, S226 \- OFFICE_\{12138\},0.0,0.00,0.00,0.00,44.19,-87.53,7.46,1,1,1,41.84,46.54,-89.11,-85.95,5.94,8.99,3.05,45.34,CeilingDiffuser,AdaptiveConvectionAlgorithm,14.86,0.00,0.00,0.00,6,0,0,Yes
 Zone Information, S227 \- VISOTOR OFFICE_\{12131\},0.0,0.00,0.00,0.00,48.91,-87.53,7.47,1,1,1,46.54,51.27,-89.11,-85.95,5.94,8.99,3.05,45.54,CeilingDiffuser,AdaptiveConvectionAlgorithm,14.92,0.00,0.00,0.00,7,0,0,Yes
 Zone Information, S228 \- HUDDLE_\{12124\},0.0,0.00,0.00,0.00,53.61,-87.53,7.46,1,1,1,51.27,55.95,-89.11,-85.95,5.94,8.99,3.05,45.13,CeilingDiffuser,AdaptiveConvectionAlgorithm,14.79,0.00,0.00,0.00,6,0,0,Yes
 Zone Information, S229 \- BOOTH_\{12117\},0.0,0.00,0.00,0.00,57.22,-87.57,7.46,1,1,1,55.95,58.64,-89.11,-85.95,5.94,8.99,3.05,24.32,CeilingDiffuser,AdaptiveConvectionAlgorithm,7.97,0.00,0.00,0.00,7,0,0,Yes
 Zone Information, S230 \- OFFICE_\{12110\},0.0,0.00,0.00,0.00,56.68,-92.38,7.47,1,1,1,54.29,59.28,-93.96,-90.74,5.94,8.99,3.05,46.94,CeilingDiffuser,AdaptiveConvectionAlgorithm,15.38,0.00,0.00,0.00,8,0,0,Yes
 Zone Information, S231 \- OFFICE_\{12103\},0.0,0.00,0.00,0.00,56.89,-95.49,7.46,1,1,1,54.29,59.68,-96.97,-93.96,5.94,8.99,3.05,47.76,CeilingDiffuser,AdaptiveConvectionAlgorithm,15.65,0.00,0.00,0.00,8,0,0,Yes
 Zone Information, S232 \- OFFICE_\{12096\},0.0,0.00,0.00,0.00,57.01,-99.01,7.47,1,1,1,53.65,60.18,-100.84,-96.97,5.94,8.99,3.05,73.93,CeilingDiffuser,AdaptiveConvectionAlgorithm,24.22,19.92,19.92,0.00,10,0,0,Yes
 Zone Information, S233 \- EXECUTIVE OFFICE_\{12089\},0.0,0.00,0.00,0.00,24.71,-95.59,7.46,1,1,1,22.38,26.83,-98.78,-92.74,5.94,8.99,3.05,77.83,CeilingDiffuser,AdaptiveConvectionAlgorithm,25.50,30.23,19.55,10.69,9,1,0,Yes
 Zone Information, S233 \- OFFICE_\{12082\},0.0,0.00,0.00,0.00,26.39,-89.68,7.47,1,1,1,22.38,30.76,-92.74,-86.91,5.94,8.99,3.05,125.25,CeilingDiffuser,AdaptiveConvectionAlgorithm,41.04,17.78,17.78,0.00,13,0,0,Yes
 Zone Information, S287 \- ELEVATOR 3_\{12075\},0.0,0.00,0.00,0.00,36.01,-82.22,7.46,1,1,1,34.57,37.36,-85.95,-78.83,5.94,8.99,3.05,60.59,CeilingDiffuser,AdaptiveConvectionAlgorithm,19.85,0.00,0.00,0.00,8,0,0,Yes
 Zone Information, S295 \- STAIR 2_\{12068\},0.0,0.00,0.00,0.00,79.61,-82.38,7.47,1,1,1,77.68,81.55,-85.88,-78.89,5.94,8.99,3.05,82.72,CeilingDiffuser,AdaptiveConvectionAlgorithm,27.01,0.00,0.00,0.00,10,0,0,Yes
 Zone Information, S297 \- STAIR 4_\{12061\},0.0,0.00,0.00,0.00,32.67,-82.39,7.47,1,1,1,30.76,34.57,-85.95,-78.83,5.94,8.99,3.05,82.83,CeilingDiffuser,AdaptiveConvectionAlgorithm,27.14,0.00,0.00,0.00,10,0,0,Yes
 Zone Information, S301 \- CORRIDOR_\{12054\},0.0,0.00,0.00,0.00,59.14,-78.17,12.04,1,1,1,31.72,80.48,-83.00,-75.45,10.52,13.56,3.04,487.18,CeilingDiffuser,AdaptiveConvectionAlgorithm,160.03,18.13,18.13,0.00,29,0,0,Yes
 Zone Information, S302 \- MEN\'S RESTROOM_\{12047\},0.0,0.00,0.00,0.00,74.91,-82.22,12.04,1,1,1,72.06,77.69,-85.92,-78.89,10.52,13.56,3.04,116.41,CeilingDiffuser,AdaptiveConvectionAlgorithm,38.16,0.00,0.00,0.00,14,0,0,Yes
 Zone Information, S303 \- WOMEN\'S RESTROOM_\{12040\},0.0,0.00,0.00,0.00,68.14,-81.67,12.04,1,1,1,63.09,72.06,-85.92,-78.74,10.52,13.56,3.04,141.78,CeilingDiffuser,AdaptiveConvectionAlgorithm,46.58,0.00,0.00,0.00,16,0,0,Yes
 Zone Information, S305 \- ELECTRIC_\{12033\},0.0,0.00,0.00,0.00,64.12,-83.70,12.04,1,1,1,61.47,66.63,-85.92,-81.35,10.52,13.56,3.04,61.23,CeilingDiffuser,AdaptiveConvectionAlgorithm,20.12,0.00,0.00,0.00,14,0,0,Yes
 Zone Information, S308 \- AV_\{12026\},0.0,0.00,0.00,0.00,59.33,-82.57,12.04,1,1,1,57.16,61.47,-85.92,-78.76,10.52,13.56,3.04,83.53,CeilingDiffuser,AdaptiveConvectionAlgorithm,27.44,0.00,0.00,0.00,11,0,0,Yes
 Zone Information, S309 \- BREAK ROOM_\{12019\},0.0,0.00,0.00,0.00,53.94,-82.80,12.04,1,1,1,49.95,58.06,-86.16,-78.76,10.52,13.56,3.04,167.79,CeilingDiffuser,AdaptiveConvectionAlgorithm,55.09,0.00,0.00,0.00,13,0,0,Yes
 Zone Information, S314 \- OPEN OFFICE_\{12012\},0.0,0.00,0.00,0.00,83.98,-85.77,12.04,1,1,1,80.35,89.85,-99.30,-75.45,10.52,13.56,3.04,522.34,CeilingDiffuser,AdaptiveConvectionAlgorithm,171.58,89.71,79.25,10.47,17,2,0,Yes
 Zone Information, S315 \- CONFERENCE_\{12005\},0.0,0.00,0.00,0.00,87.65,-78.62,12.04,1,1,1,85.44,89.85,-81.78,-75.45,10.52,13.56,3.04,84.91,CeilingDiffuser,AdaptiveConvectionAlgorithm,27.89,32.65,32.65,0.00,6,0,0,Yes
 Zone Information, S317 INTERIOR 1 \- OPEN OFFICE_\{11991\},0.0,0.00,0.00,0.00,41.55,-90.63,12.04,1,1,1,30.49,55.88,-93.80,-85.94,10.52,13.56,3.04,376.73,CeilingDiffuser,AdaptiveConvectionAlgorithm,123.70,0.00,0.00,0.00,18,0,0,Yes
 Zone Information, S317 INTERIOR \- OPEN OFFICE_\{11998\},0.0,0.00,0.00,0.00,66.36,-90.46,12.04,1,1,1,54.99,81.75,-93.80,-85.66,10.52,13.56,3.04,400.20,CeilingDiffuser,AdaptiveConvectionAlgorithm,131.47,0.00,0.00,0.00,26,0,0,Yes
 Zone Information, S317 PERIMETER 1 \- OPEN OFFICE_\{11977\},0.0,0.00,0.00,0.00,44.41,-97.67,12.04,1,1,1,30.49,55.88,-100.84,-93.80,10.52,13.56,3.04,503.80,CeilingDiffuser,AdaptiveConvectionAlgorithm,165.51,77.39,30.70,46.68,13,6,0,Yes
 Zone Information, S317 PERIMETER \- OPEN OFFICE_\{11984\},0.0,0.00,0.00,0.00,68.37,-97.42,12.04,1,1,1,55.88,81.75,-100.83,-93.80,10.52,13.56,3.04,513.17,CeilingDiffuser,AdaptiveConvectionAlgorithm,168.59,78.83,32.20,46.63,17,6,0,Yes
 Zone Information, S319 \- BOOTH_\{11970\},0.0,0.00,0.00,0.00,78.84,-87.51,12.04,1,1,1,77.32,80.35,-89.10,-85.92,10.52,13.56,3.04,29.35,CeilingDiffuser,AdaptiveConvectionAlgorithm,9.64,0.00,0.00,0.00,7,0,0,Yes
 Zone Information, S320 \- OFFICE_\{11963\},0.0,0.00,0.00,0.00,74.96,-87.51,12.04,1,1,1,72.61,77.32,-89.10,-85.92,10.52,13.56,3.04,45.61,CeilingDiffuser,AdaptiveConvectionAlgorithm,14.98,0.00,0.00,0.00,7,0,0,Yes
 Zone Information, S321 \- OFFICE_\{11956\},0.0,0.00,0.00,0.00,70.26,-87.51,12.04,1,1,1,67.91,72.61,-89.10,-85.92,10.52,13.56,3.04,45.47,CeilingDiffuser,AdaptiveConvectionAlgorithm,14.94,0.00,0.00,0.00,8,0,0,Yes
 Zone Information, S322 \- OFFICE_\{11949\},0.0,0.00,0.00,0.00,65.56,-87.51,12.04,1,1,1,63.21,67.91,-89.10,-85.92,10.52,13.56,3.04,45.47,CeilingDiffuser,AdaptiveConvectionAlgorithm,14.94,0.00,0.00,0.00,7,0,0,Yes
 Zone Information, S323 \- OFFICE_\{11942\},0.0,0.00,0.00,0.00,60.78,-87.52,12.04,1,1,1,58.50,63.21,-89.10,-85.92,10.52,13.56,3.04,45.57,CeilingDiffuser,AdaptiveConvectionAlgorithm,14.89,0.00,0.00,0.00,8,0,0,Yes
 Zone Information, S324 \- COPY ROOM_\{11935\},0.0,0.00,0.00,0.00,54.55,-87.56,12.04,1,1,1,53.60,55.88,-89.10,-85.94,10.52,13.56,3.04,17.44,CeilingDiffuser,AdaptiveConvectionAlgorithm,5.71,0.00,0.00,0.00,7,0,0,Yes
 Zone Information, S325 \- OFFICE_\{11928\},0.0,0.00,0.00,0.00,48.34,-87.52,12.04,1,1,1,46.00,50.69,-89.10,-85.94,10.52,13.56,3.04,45.25,CeilingDiffuser,AdaptiveConvectionAlgorithm,14.80,0.00,0.00,0.00,8,0,0,Yes
 Zone Information, S326 \- BOOTH_\{11921\},0.0,0.00,0.00,0.00,52.15,-87.52,12.04,1,1,1,50.69,53.60,-89.10,-85.94,10.52,13.56,3.04,28.03,CeilingDiffuser,AdaptiveConvectionAlgorithm,9.17,0.00,0.00,0.00,7,0,0,Yes
 Zone Information, S327 \- OFFICE_\{11914\},0.0,0.00,0.00,0.00,43.65,-87.52,12.04,1,1,1,41.30,46.00,-89.10,-85.94,10.52,13.56,3.04,45.31,CeilingDiffuser,AdaptiveConvectionAlgorithm,14.82,0.00,0.00,0.00,8,0,0,Yes
 Zone Information, S328 \- OFFICE_\{11907\},0.0,0.00,0.00,0.00,38.95,-87.52,12.04,1,1,1,36.59,41.30,-89.10,-85.94,10.52,13.56,3.04,45.45,CeilingDiffuser,AdaptiveConvectionAlgorithm,14.87,0.00,0.00,0.00,8,0,0,Yes
 Zone Information, S329 \- OFFICE_\{11900\},0.0,0.00,0.00,0.00,34.23,-87.52,12.04,1,1,1,31.88,36.59,-89.10,-85.94,10.52,13.56,3.04,45.42,CeilingDiffuser,AdaptiveConvectionAlgorithm,14.85,0.00,0.00,0.00,8,0,0,Yes
 Zone Information, S333 \- OPEN OFFICE_\{11893\},0.0,0.00,0.00,0.00,27.74,-86.02,12.04,1,1,1,22.38,31.72,-99.28,-75.44,10.52,13.56,3.04,504.88,CeilingDiffuser,AdaptiveConvectionAlgorithm,165.81,83.69,62.52,21.17,19,3,0,Yes
 Zone Information, S334 \- CONFERENCE_\{11886\},0.0,0.00,0.00,0.00,24.61,-78.61,12.04,1,1,1,22.38,26.83,-81.77,-75.44,10.52,13.56,3.04,85.78,CeilingDiffuser,AdaptiveConvectionAlgorithm,28.18,32.77,32.77,0.00,6,0,0,Yes
 Zone Information, S335 \- OPEN OFFICE_\{11879\},0.0,0.00,0.00,0.00,41.42,-82.35,12.04,1,1,1,37.35,45.50,-85.94,-78.76,10.52,13.56,3.04,177.94,CeilingDiffuser,AdaptiveConvectionAlgorithm,58.41,0.00,0.00,0.00,9,0,0,Yes
 Zone Information, S335A \- STORAGE_\{11872\},0.0,0.00,0.00,0.00,47.71,-82.35,12.04,1,1,1,45.50,49.95,-85.94,-78.76,10.52,13.56,3.04,97.23,CeilingDiffuser,AdaptiveConvectionAlgorithm,31.94,0.00,0.00,0.00,9,0,0,Yes
 Zone Information, S387 \- ELEVATOR 3_\{11865\},0.0,0.00,0.00,0.00,35.91,-82.35,12.04,1,1,1,34.48,37.35,-85.94,-78.76,10.52,13.56,3.04,62.58,CeilingDiffuser,AdaptiveConvectionAlgorithm,20.56,0.00,0.00,0.00,9,0,0,Yes
 Zone Information, S395 \- STAIR 2_\{11858\},0.0,0.00,0.00,0.00,79.57,-82.41,12.04,1,1,1,77.69,81.44,-85.92,-78.89,10.52,13.56,3.04,80.21,CeilingDiffuser,AdaptiveConvectionAlgorithm,26.35,0.00,0.00,0.00,9,0,0,Yes
 Zone Information, S397 \- STAIR 4_\{11851\},0.0,0.00,0.00,0.00,32.62,-82.35,12.04,1,1,1,30.76,34.48,-85.94,-78.76,10.52,13.56,3.04,81.39,CeilingDiffuser,AdaptiveConvectionAlgorithm,26.67,0.00,0.00,0.00,9,0,0,Yes
 Zone Information, S4 \- MECH SHAFT 1_\{11844\},0.0,0.00,0.00,0.00,35.97,-84.13,16.62,1,1,1,34.52,37.41,-85.94,-82.32,15.09,18.14,3.05,31.80,CeilingDiffuser,AdaptiveConvectionAlgorithm,10.44,0.00,0.00,0.00,8,0,0,Yes
 Zone Information, S4 \- MECH SHAFT 2_\{11837\},0.0,0.00,0.00,0.00,49.42,-80.86,16.62,1,1,1,48.90,49.94,-82.97,-78.74,15.09,18.14,3.05,13.41,CeilingDiffuser,AdaptiveConvectionAlgorithm,4.38,0.00,0.00,0.00,7,0,0,Yes
 Zone Information, S4 \- MECH SHAFT 3_\{11830\},0.0,0.00,0.00,0.00,62.54,-84.43,16.62,1,1,1,61.50,63.58,-85.93,-82.94,15.09,18.14,3.05,18.90,CeilingDiffuser,AdaptiveConvectionAlgorithm,6.20,0.00,0.00,0.00,8,0,0,Yes
 Zone Information, S4 \- MECHANICAL 4_\{11823\},0.0,0.00,0.00,0.00,72.19,-85.33,16.62,1,1,1,66.64,77.75,-85.93,-84.73,15.09,18.14,3.05,40.44,CeilingDiffuser,AdaptiveConvectionAlgorithm,13.18,0.00,0.00,0.00,11,0,0,Yes
 Zone Information, S401 \- BATHROOM_\{11816\},0.0,0.00,0.00,0.00,74.88,-81.43,16.62,1,1,1,72.11,77.75,-84.73,-78.72,15.09,18.14,3.05,97.72,CeilingDiffuser,AdaptiveConvectionAlgorithm,32.06,0.00,0.00,0.00,10,0,0,Yes
 Zone Information, S401 \- CORRIDOR_\{11809\},0.0,0.00,0.00,0.00,65.08,-79.36,16.62,1,1,1,30.62,85.49,-89.10,-75.45,15.09,18.14,3.05,664.72,CeilingDiffuser,AdaptiveConvectionAlgorithm,218.04,33.19,10.17,23.03,41,1,0,Yes
 Zone Information, S402 \- BATHROOM_\{11802\},0.0,0.00,0.00,0.00,69.42,-81.43,16.62,1,1,1,66.64,72.11,-84.73,-78.72,15.09,18.14,3.05,94.75,CeilingDiffuser,AdaptiveConvectionAlgorithm,31.00,0.00,0.00,0.00,10,0,0,Yes
 Zone Information, S404 \- STORAGE_\{11795\},0.0,0.00,0.00,0.00,64.88,-80.02,16.62,1,1,1,63.12,66.64,-81.32,-78.72,15.09,18.14,3.05,27.89,CeilingDiffuser,AdaptiveConvectionAlgorithm,9.07,0.00,0.00,0.00,7,0,0,Yes
 Zone Information, S405 \- ELECTRICAL_\{11788\},0.0,0.00,0.00,0.00,65.11,-83.62,16.62,1,1,1,63.58,66.64,-85.93,-81.32,15.09,18.14,3.05,43.03,CeilingDiffuser,AdaptiveConvectionAlgorithm,14.11,0.00,0.00,0.00,9,0,0,Yes
 Zone Information, S408 \- AV/DF_\{11781\},0.0,0.00,0.00,0.00,59.40,-82.44,16.62,1,1,1,57.20,61.50,-85.93,-78.72,15.09,18.14,3.05,81.98,CeilingDiffuser,AdaptiveConvectionAlgorithm,26.75,0.00,0.00,0.00,12,0,0,Yes
 Zone Information, S409 \- BREAKROOM_\{11774\},0.0,0.00,0.00,0.00,54.97,-83.63,16.62,1,1,1,49.94,58.51,-89.10,-78.74,15.09,18.14,3.05,198.01,CeilingDiffuser,AdaptiveConvectionAlgorithm,64.93,0.00,0.00,0.00,16,0,0,Yes
 Zone Information, S414 \- OFFICE_\{11767\},0.0,0.00,0.00,0.00,87.60,-79.12,16.62,1,1,1,85.40,89.85,-82.95,-75.45,15.09,18.14,3.05,101.55,CeilingDiffuser,AdaptiveConvectionAlgorithm,33.34,36.45,10.84,25.60,7,2,0,Yes
 Zone Information, S415 \- CONFERENCE_\{11760\},0.0,0.00,0.00,0.00,87.91,-89.16,16.62,1,1,1,85.49,89.85,-92.08,-85.41,15.09,18.14,3.05,87.47,CeilingDiffuser,AdaptiveConvectionAlgorithm,28.72,18.61,5.12,13.48,9,1,0,Yes
 Zone Information, S416 \- PANTRY_\{11753\},0.0,0.00,0.00,0.00,87.62,-84.18,16.61,1,1,1,85.40,89.85,-85.41,-82.95,15.09,18.14,3.05,33.27,CeilingDiffuser,AdaptiveConvectionAlgorithm,10.92,7.50,2.22,5.29,7,1,0,Yes
 Zone Information, S417 \- OFFICE_\{11746\},0.0,0.00,0.00,0.00,87.76,-94.91,16.61,1,1,1,85.49,89.85,-98.77,-91.51,15.09,18.14,3.05,85.61,CeilingDiffuser,AdaptiveConvectionAlgorithm,28.10,33.62,17.54,16.08,8,3,0,Yes
 Zone Information, S418A \- OPEN OFFICE_\{11739\},0.0,0.00,0.00,0.00,42.62,-95.55,16.62,1,1,1,26.76,59.79,-100.84,-89.10,15.09,18.14,3.05,1087.88,CeilingDiffuser,AdaptiveConvectionAlgorithm,357.02,101.05,31.27,69.79,23,10,0,Yes
 Zone Information, S418B \- OPEN OFFICE_\{11732\},0.0,0.00,0.00,0.00,73.17,-95.64,16.62,1,1,1,58.51,85.51,-100.82,-89.10,15.09,18.14,3.05,857.89,CeilingDiffuser,AdaptiveConvectionAlgorithm,281.56,78.75,24.49,54.26,19,8,0,Yes
 Zone Information, S419 \- COPY_\{11725\},0.0,0.00,0.00,0.00,80.97,-87.51,16.62,1,1,1,80.34,81.60,-89.10,-85.93,15.09,18.14,3.05,12.17,CeilingDiffuser,AdaptiveConvectionAlgorithm,3.97,0.00,0.00,0.00,6,0,0,Yes
 Zone Information, S420 \- BOOTH_\{11718\},0.0,0.00,0.00,0.00,78.81,-87.52,16.62,1,1,1,77.28,80.34,-89.10,-85.93,15.09,18.14,3.05,29.63,CeilingDiffuser,AdaptiveConvectionAlgorithm,9.73,0.00,0.00,0.00,8,0,0,Yes
 Zone Information, S421 \- OFFICE_\{11711\},0.0,0.00,0.00,0.00,74.95,-87.51,16.61,1,1,1,72.62,77.28,-89.10,-85.93,15.09,18.14,3.05,44.98,CeilingDiffuser,AdaptiveConvectionAlgorithm,14.77,0.00,0.00,0.00,6,0,0,Yes
 Zone Information, S422 \- OFFICE_\{11704\},0.0,0.00,0.00,0.00,70.27,-87.52,16.62,1,1,1,67.92,72.62,-89.10,-85.93,15.09,18.14,3.05,45.52,CeilingDiffuser,AdaptiveConvectionAlgorithm,14.89,0.00,0.00,0.00,6,0,0,Yes
 Zone Information, S423 \- OFFICE_\{11697\},0.0,0.00,0.00,0.00,65.57,-87.51,16.62,1,1,1,63.23,67.92,-89.10,-85.93,15.09,18.14,3.05,45.33,CeilingDiffuser,AdaptiveConvectionAlgorithm,14.86,0.00,0.00,0.00,8,0,0,Yes
 Zone Information, S424 \- OFFICE_\{11690\},0.0,0.00,0.00,0.00,60.87,-87.51,16.62,1,1,1,58.51,63.23,-89.10,-85.93,15.09,18.14,3.05,45.63,CeilingDiffuser,AdaptiveConvectionAlgorithm,14.93,0.00,0.00,0.00,7,0,0,Yes
 Zone Information, S425 \- COPY_\{11683\},0.0,0.00,0.00,0.00,54.56,-87.60,16.62,1,1,1,53.60,55.85,-89.10,-85.91,15.09,18.14,3.05,17.61,CeilingDiffuser,AdaptiveConvectionAlgorithm,5.70,0.00,0.00,0.00,6,0,0,Yes
 Zone Information, S426 \- OFFICE_\{11676\},0.0,0.00,0.00,0.00,51.26,-87.51,16.62,1,1,1,48.92,53.60,-89.10,-85.91,15.09,18.14,3.05,45.53,CeilingDiffuser,AdaptiveConvectionAlgorithm,14.82,0.00,0.00,0.00,8,0,0,Yes
 Zone Information, S428 \- BOOTH_\{11669\},0.0,0.00,0.00,0.00,37.19,-87.52,16.61,1,1,1,36.24,38.15,-89.10,-85.94,15.09,18.14,3.05,18.45,CeilingDiffuser,AdaptiveConvectionAlgorithm,6.06,0.00,0.00,0.00,8,0,0,Yes
 Zone Information, S429 \- OFFICE_\{11662\},0.0,0.00,0.00,0.00,46.56,-80.33,16.62,1,1,1,44.21,48.90,-81.92,-78.74,15.09,18.14,3.05,45.36,CeilingDiffuser,AdaptiveConvectionAlgorithm,14.79,0.00,0.00,0.00,7,0,0,Yes
 Zone Information, S430 \- OFFICE_\{11655\},0.0,0.00,0.00,0.00,41.85,-80.33,16.62,1,1,1,39.50,44.21,-81.92,-78.74,15.09,18.14,3.05,45.54,CeilingDiffuser,AdaptiveConvectionAlgorithm,14.85,0.00,0.00,0.00,6,0,0,Yes
 Zone Information, S431 \- OFFICE_\{11648\},0.0,0.00,0.00,0.00,33.89,-87.52,16.61,1,1,1,31.55,36.24,-89.10,-85.94,15.09,18.14,3.05,45.15,CeilingDiffuser,AdaptiveConvectionAlgorithm,14.82,0.00,0.00,0.00,8,0,0,Yes
 Zone Information, S431 \- STORAGE_\{11641\},0.0,0.00,0.00,0.00,38.45,-80.33,16.62,1,1,1,37.41,39.50,-81.92,-78.74,15.09,18.14,3.05,20.30,CeilingDiffuser,AdaptiveConvectionAlgorithm,6.62,0.00,0.00,0.00,6,0,0,Yes
 Zone Information, S433 \- CONFERENCE_\{11634\},0.0,0.00,0.00,0.00,24.62,-95.22,16.62,1,1,1,22.38,26.76,-98.76,-91.97,15.09,18.14,3.05,86.48,CeilingDiffuser,AdaptiveConvectionAlgorithm,28.39,32.36,19.13,13.23,6,3,0,Yes
 Zone Information, S434 \- OPEN OFFICE_\{11627\},0.0,0.00,0.00,0.00,27.61,-83.06,16.62,1,1,1,22.38,31.55,-91.97,-75.44,15.09,18.14,3.05,421.48,CeilingDiffuser,AdaptiveConvectionAlgorithm,138.37,72.99,26.45,46.55,16,2,0,Yes
 Zone Information, S439 \- OPEN OFFICE_\{11620\},0.0,0.00,0.00,0.00,43.94,-85.34,16.62,1,1,1,37.41,49.94,-89.10,-81.92,15.09,18.14,3.05,253.76,CeilingDiffuser,AdaptiveConvectionAlgorithm,83.31,0.00,0.00,0.00,19,0,0,Yes
 Zone Information, S487 \- ELEVATOR 3 SHAFT_\{11613\},0.0,0.00,0.00,0.00,35.97,-80.53,16.62,1,1,1,34.52,37.41,-82.32,-78.74,15.09,18.14,3.05,31.57,CeilingDiffuser,AdaptiveConvectionAlgorithm,10.30,0.00,0.00,0.00,8,0,0,Yes
 Zone Information, S495 \- STAIR 2_\{11606\},0.0,0.00,0.00,0.00,79.67,-82.32,16.62,1,1,1,77.75,81.60,-85.93,-78.72,15.09,18.14,3.05,84.50,CeilingDiffuser,AdaptiveConvectionAlgorithm,27.73,0.00,0.00,0.00,10,0,0,Yes
 Zone Information, S496 \- STAIR 4_\{11599\},0.0,0.00,0.00,0.00,32.57,-82.33,16.62,1,1,1,30.62,34.52,-85.94,-78.74,15.09,18.14,3.05,85.42,CeilingDiffuser,AdaptiveConvectionAlgorithm,27.98,0.00,0.00,0.00,10,0,0,Yes
 Zone Information, S501 \- CORRIDOR_\{11592\},0.0,0.00,0.00,0.00,60.83,-77.63,21.19,1,1,1,31.70,80.51,-79.62,-75.45,19.66,22.71,3.05,471.85,CeilingDiffuser,AdaptiveConvectionAlgorithm,154.74,110.97,110.97,0.00,38,0,0,Yes
 Zone Information, S502 \- MEN\'S RESTROOM_\{11585\},0.0,0.00,0.00,0.00,74.82,-81.98,21.19,1,1,1,72.10,77.69,-85.97,-78.82,19.66,22.71,3.05,116.38,CeilingDiffuser,AdaptiveConvectionAlgorithm,38.06,0.00,0.00,0.00,12,0,0,Yes
 Zone Information, S503 \- WOMEN\'S RESTROOM_\{11578\},0.0,0.00,0.00,0.00,69.41,-82.06,21.19,1,1,1,66.63,72.10,-85.97,-78.82,19.66,22.71,3.05,113.92,CeilingDiffuser,AdaptiveConvectionAlgorithm,37.23,0.00,0.00,0.00,12,0,0,Yes
 Zone Information, S504 \-VESTIBULE_\{11571\},0.0,0.00,0.00,0.00,55.28,-82.94,21.19,1,1,1,52.83,58.04,-86.17,-78.82,19.66,22.71,3.05,104.33,CeilingDiffuser,AdaptiveConvectionAlgorithm,34.11,0.00,0.00,0.00,9,0,0,Yes
 Zone Information, S505 \- ELECTRIC ROOM_\{11564\},0.0,0.00,0.00,0.00,65.10,-83.64,21.19,1,1,1,63.58,66.63,-85.97,-81.31,19.66,22.71,3.05,43.19,CeilingDiffuser,AdaptiveConvectionAlgorithm,14.15,0.00,0.00,0.00,8,0,0,Yes
 Zone Information, S506 \- VESTIBULE_\{11557\},0.0,0.00,0.00,0.00,62.53,-80.95,21.19,1,1,1,61.51,63.58,-82.86,-78.82,19.66,22.71,3.05,21.99,CeilingDiffuser,AdaptiveConvectionAlgorithm,7.20,0.00,0.00,0.00,8,0,0,Yes
 Zone Information, S507 \- JANITOR_\{11550\},0.0,0.00,0.00,0.00,62.54,-84.41,21.19,1,1,1,61.51,63.58,-85.97,-82.86,19.66,22.71,3.05,19.59,CeilingDiffuser,AdaptiveConvectionAlgorithm,6.33,0.00,0.00,0.00,8,0,0,Yes
 Zone Information, S508 \- AV_\{11543\},0.0,0.00,0.00,0.00,59.40,-82.55,21.19,1,1,1,57.16,61.51,-85.97,-78.82,19.66,22.71,3.05,84.62,CeilingDiffuser,AdaptiveConvectionAlgorithm,27.59,0.00,0.00,0.00,11,0,0,Yes
 Zone Information, S509 \- ELEVATOR MACHINEROOM_\{11536\},0.0,0.00,0.00,0.00,64.88,-80.07,21.19,1,1,1,63.12,66.63,-81.31,-78.82,19.66,22.71,3.05,26.72,CeilingDiffuser,AdaptiveConvectionAlgorithm,8.76,0.00,0.00,0.00,7,0,0,Yes
 Zone Information, S510 \- BREAKROOM_\{11529\},0.0,0.00,0.00,0.00,50.87,-82.39,21.18,1,1,1,48.92,52.83,-85.97,-78.82,19.66,22.71,3.05,85.03,CeilingDiffuser,AdaptiveConvectionAlgorithm,27.90,0.00,0.00,0.00,9,0,0,Yes
[...]
 Warmup Convergence Information,S327 \- OFFICE_\{11914\},RunPeriod: RUNPERIOD_PALM BEACH INTL AP_\{11171\},1.9585153960E-002,6.4773123102E-002,Pass,Pass,6.5439634236E-002,0.2489754712,Pass,Pass
 Warmup Convergence Information,S328 \- OFFICE_\{11907\},RunPeriod: RUNPERIOD_PALM BEACH INTL AP_\{11171\},1.9614651497E-002,6.4848138656E-002,Pass,Pass,6.5440517586E-002,0.2489903230,Pass,Pass
 Warmup Convergence Information,S329 \- OFFICE_\{11900\},RunPeriod: RUNPERIOD_PALM BEACH INTL AP_\{11171\},1.9833434928E-002,6.4768591379E-002,Pass,Pass,6.5500683054E-002,0.2494367118,Pass,Pass
 Warmup Convergence Information,S333 \- OPEN OFFICE_\{11893\},RunPeriod: RUNPERIOD_PALM BEACH INTL AP_\{11171\},7.1583742979E-002,0.1284616320,Pass,Pass,0.2202586863,0.7942210257,Pass,Pass
 Warmup Convergence Information,S334 \- CONFERENCE_\{11886\},RunPeriod: RUNPERIOD_PALM BEACH INTL AP_\{11171\},5.5891614803E-002,5.6397049310E-002,Pass,Pass,5.7231520348E-002,0.2005973509,Pass,Pass
 Warmup Convergence Information,S335 \- OPEN OFFICE_\{11879\},RunPeriod: RUNPERIOD_PALM BEACH INTL AP_\{11171\},2.1866004816E-002,6.7467866599E-002,Pass,Pass,6.7354338284E-002,0.2654632960,Pass,Pass
 Warmup Convergence Information,S335A \- STORAGE_\{11872\},RunPeriod: RUNPERIOD_PALM BEACH INTL AP_\{11171\},2.0879449861E-002,6.6398630199E-002,Pass,Pass,6.6344187696E-002,0.2576365955,Pass,Pass
 Warmup Convergence Information,S387 \- ELEVATOR 3_\{11865\},RunPeriod: RUNPERIOD_PALM BEACH INTL AP_\{11171\},2.0987848817E-002,6.6064768911E-002,Pass,Pass,7.2967528464E-002,0.2460102809,Pass,Pass
 Warmup Convergence Information,S395 \- STAIR 2_\{11858\},RunPeriod: RUNPERIOD_PALM BEACH INTL AP_\{11171\},2.0063079940E-002,5.7196674976E-002,Pass,Pass,6.6584830896E-002,0.2502037451,Pass,Pass
 Warmup Convergence Information,S397 \- STAIR 4_\{11851\},RunPeriod: RUNPERIOD_PALM BEACH INTL AP_\{11171\},2.3759296227E-002,6.1742175092E-002,Pass,Pass,6.6542366214E-002,0.2575000661,Pass,Pass
 Warmup Convergence Information,S4 \- MECH SHAFT 1_\{11844\},RunPeriod: RUNPERIOD_PALM BEACH INTL AP_\{11171\},2.1344237798E-002,7.4093429871E-002,Pass,Pass,6.8227204824E-002,0.2629668317,Pass,Pass
 Warmup Convergence Information,S4 \- MECH SHAFT 2_\{11837\},RunPeriod: RUNPERIOD_PALM BEACH INTL AP_\{11171\},1.9396649305E-002,7.0064105133E-002,Pass,Pass,7.3401825809E-002,0.2574768154,Pass,Pass
 Warmup Convergence Information,S4 \- MECH SHAFT 3_\{11830\},RunPeriod: RUNPERIOD_PALM BEACH INTL AP_\{11171\},1.9684758386E-002,6.7422062448E-002,Pass,Pass,6.8724326652E-002,0.2601244336,Pass,Pass
 Warmup Convergence Information,S4 \- MECHANICAL 4_\{11823\},RunPeriod: RUNPERIOD_PALM BEACH INTL AP_\{11171\},1.9484880797E-002,7.0391950977E-002,Pass,Pass,6.7735307761E-002,0.2550966248,Pass,Pass
 Warmup Convergence Information,S401 \- BATHROOM_\{11816\},RunPeriod: RUNPERIOD_PALM BEACH INTL AP_\{11171\},2.2170030666E-002,7.0441156549E-002,Pass,Pass,6.7033296388E-002,0.2638595847,Pass,Pass
 Warmup Convergence Information,S401 \- CORRIDOR_\{11809\},RunPeriod: RUNPERIOD_PALM BEACH INTL AP_\{11171\},3.3371721821E-002,4.4949570035E-002,Pass,Pass,6.0207941387E-002,0.2491339344,Pass,Pass
 Warmup Convergence Information,S402 \- BATHROOM_\{11802\},RunPeriod: RUNPERIOD_PALM BEACH INTL AP_\{11171\},2.1952778884E-002,7.0132244496E-002,Pass,Pass,6.6978114255E-002,0.2634761305,Pass,Pass
 Warmup Convergence Information,S404 \- STORAGE_\{11795\},RunPeriod: RUNPERIOD_PALM BEACH INTL AP_\{11171\},1.9510592207E-002,6.1253551190E-002,Pass,Pass,6.5549264611E-002,0.2536218650,Pass,Pass
 Warmup Convergence Information,S405 \- ELECTRICAL_\{11788\},RunPeriod: RUNPERIOD_PALM BEACH INTL AP_\{11171\},2.0687575190E-002,6.9537874883E-002,Pass,Pass,6.5557206607E-002,0.2504946055,Pass,Pass
 Warmup Convergence Information,S408 \- AV/DF_\{11781\},RunPeriod: RUNPERIOD_PALM BEACH INTL AP_\{11171\},2.2076787153E-002,6.8346176046E-002,Pass,Pass,6.7447351073E-002,0.2651723126,Pass,Pass
 Warmup Convergence Information,S409 \- BREAKROOM_\{11774\},RunPeriod: RUNPERIOD_PALM BEACH INTL AP_\{11171\},2.3371160093E-002,7.1057660966E-002,Pass,Pass,6.7393028518E-002,0.2681208502,Pass,Pass
 Warmup Convergence Information,S414 \- OFFICE_\{11767\},RunPeriod: RUNPERIOD_PALM BEACH INTL AP_\{11171\},0.1402460120,0.1881106180,Pass,Pass,7.3851196879E-002,0.2642255773,Pass,Pass
 Warmup Convergence Information,S415 \- CONFERENCE_\{11760\},RunPeriod: RUNPERIOD_PALM BEACH INTL AP_\{11171\},0.1028633597,0.1411985993,Pass,Pass,7.6523486284E-002,0.2722384982,Pass,Pass
 Warmup Convergence Information,S416 \- PANTRY_\{11753\},RunPeriod: RUNPERIOD_PALM BEACH INTL AP_\{11171\},8.8292339311E-002,0.1147620891,Pass,Pass,8.6214419396E-002,0.3392617561,Pass,Pass
 Warmup Convergence Information,S417 \- OFFICE_\{11746\},RunPeriod: RUNPERIOD_PALM BEACH INTL AP_\{11171\},0.1152933819,0.1486823241,Pass,Pass,7.6757141074E-002,0.2754341310,Pass,Pass
 Warmup Convergence Information,S418A \- OPEN OFFICE_\{11739\},RunPeriod: RUNPERIOD_PALM BEACH INTL AP_\{11171\},5.5691800655E-002,7.0472913965E-002,Pass,Pass,5.4469844468E-002,0.2134259652,Pass,Pass
 Warmup Convergence Information,S418B \- OPEN OFFICE_\{11732\},RunPeriod: RUNPERIOD_PALM BEACH INTL AP_\{11171\},5.4163245327E-002,6.8234368370E-002,Pass,Pass,5.4801958412E-002,0.2154495695,Pass,Pass
 Warmup Convergence Information,S419 \- COPY_\{11725\},RunPeriod: RUNPERIOD_PALM BEACH INTL AP_\{11171\},1.8431663417E-002,5.3133010573E-002,Pass,Pass,7.4213494660E-002,0.2587317698,Pass,Pass
 Warmup Convergence Information,S420 \- BOOTH_\{11718\},RunPeriod: RUNPERIOD_PALM BEACH INTL AP_\{11171\},1.8833319555E-002,6.0374962107E-002,Pass,Pass,6.6411099969E-002,0.2590009580,Pass,Pass
 Warmup Convergence Information,S421 \- OFFICE_\{11711\},RunPeriod: RUNPERIOD_PALM BEACH INTL AP_\{11171\},1.9877290271E-002,6.0883581455E-002,Pass,Pass,6.5559601793E-002,0.2562624385,Pass,Pass
 Warmup Convergence Information,S422 \- OFFICE_\{11704\},RunPeriod: RUNPERIOD_PALM BEACH INTL AP_\{11171\},1.9956074274E-002,6.0984230456E-002,Pass,Pass,6.5754176335E-002,0.2558410777,Pass,Pass
 Warmup Convergence Information,S423 \- OFFICE_\{11697\},RunPeriod: RUNPERIOD_PALM BEACH INTL AP_\{11171\},2.0128666911E-002,6.1353528743E-002,Pass,Pass,6.5653400238E-002,0.2567159373,Pass,Pass
 Warmup Convergence Information,S424 \- OFFICE_\{11690\},RunPeriod: RUNPERIOD_PALM BEACH INTL AP_\{11171\},2.0407350919E-002,6.2102569936E-002,Pass,Pass,6.5777453099E-002,0.2571875482,Pass,Pass
 Warmup Convergence Information,S425 \- COPY_\{11683\},RunPeriod: RUNPERIOD_PALM BEACH INTL AP_\{11171\},1.9121344123E-002,6.0946956346E-002,Pass,Pass,6.7945485728E-002,0.2544731573,Pass,Pass
 Warmup Convergence Information,S426 \- OFFICE_\{11676\},RunPeriod: RUNPERIOD_PALM BEACH INTL AP_\{11171\},2.0651467468E-002,6.2467084354E-002,Pass,Pass,6.5914196259E-002,0.2578909752,Pass,Pass
 Warmup Convergence Information,S428 \- BOOTH_\{11669\},RunPeriod: RUNPERIOD_PALM BEACH INTL AP_\{11171\},1.9692298718E-002,6.3662585801E-002,Pass,Pass,6.8301362691E-002,0.2606770857,Pass,Pass
 Warmup Convergence Information,S429 \- OFFICE_\{11662\},RunPeriod: RUNPERIOD_PALM BEACH INTL AP_\{11171\},2.1114298598E-002,6.7841491093E-002,Pass,Pass,6.9098154454E-002,0.2542080404,Pass,Pass
 Warmup Convergence Information,S430 \- OFFICE_\{11655\},RunPeriod: RUNPERIOD_PALM BEACH INTL AP_\{11171\},2.1005384465E-002,6.7986183886E-002,Pass,Pass,6.7531243263E-002,0.2545522964,Pass,Pass
 Warmup Convergence Information,S431 \- OFFICE_\{11648\},RunPeriod: RUNPERIOD_PALM BEACH INTL AP_\{11171\},2.5714616412E-002,5.6131890559E-002,Pass,Pass,6.5942531760E-002,0.2581159649,Pass,Pass
 Warmup Convergence Information,S431 \- STORAGE_\{11641\},RunPeriod: RUNPERIOD_PALM BEACH INTL AP_\{11171\},1.9931229831E-002,6.8294311491E-002,Pass,Pass,7.0360552328E-002,0.2626330679,Pass,Pass
 Warmup Convergence Information,S433 \- CONFERENCE_\{11634\},RunPeriod: RUNPERIOD_PALM BEACH INTL AP_\{11171\},0.1123249174,0.2133077956,Pass,Pass,0.1192877868,0.2290170656,Pass,Pass
 Warmup Convergence Information,S434 \- OPEN OFFICE_\{11627\},RunPeriod: RUNPERIOD_PALM BEACH INTL AP_\{11171\},9.5413261540E-002,0.2001288517,Pass,Pass,0.1045705698,0.2241716936,Pass,Pass
 Warmup Convergence Information,S439 \- OPEN OFFICE_\{11620\},RunPeriod: RUNPERIOD_PALM BEACH INTL AP_\{11171\},2.4109212862E-002,7.0387615068E-002,Pass,Pass,6.8233734261E-002,0.2728903199,Pass,Pass
 Warmup Convergence Information,S487 \- ELEVATOR 3 SHAFT_\{11613\},RunPeriod: RUNPERIOD_PALM BEACH INTL AP_\{11171\},2.0328802465E-002,6.8781594679E-002,Pass,Pass,6.7084289944E-002,0.2587729841,Pass,Pass
 Warmup Convergence Information,S495 \- STAIR 2_\{11606\},RunPeriod: RUNPERIOD_PALM BEACH INTL AP_\{11171\},2.2193882778E-002,6.6664714935E-002,Pass,Pass,6.7073589693E-002,0.2614249023,Pass,Pass
 Warmup Convergence Information,S496 \- STAIR 4_\{11599\},RunPeriod: RUNPERIOD_PALM BEACH INTL AP_\{11171\},2.9414806061E-002,6.2282439173E-002,Pass,Pass,6.8043597756E-002,0.2660659864,Pass,Pass
 Warmup Convergence Information,S501 \- CORRIDOR_\{11592\},RunPeriod: RUNPERIOD_PALM BEACH INTL AP_\{11171\},3.8853507948E-002,4.0641398472E-002,Pass,Pass,5.3326000543E-002,0.1842194930,Pass,Pass
 Warmup Convergence Information,S502 \- MEN\'S RESTROOM_\{11585\},RunPeriod: RUNPERIOD_PALM BEACH INTL AP_\{11171\},2.3591732473E-002,3.2031456900E-002,Pass,Pass,4.5432944458E-002,0.1793318743,Pass,Pass
 Warmup Convergence Information,S503 \- WOMEN\'S RESTROOM_\{11578\},RunPeriod: RUNPERIOD_PALM BEACH INTL AP_\{11171\},2.3318148873E-002,3.1827044091E-002,Pass,Pass,4.5404823191E-002,0.1795221086,Pass,Pass
 Warmup Convergence Information,S504 \-VESTIBULE_\{11571\},RunPeriod: RUNPERIOD_PALM BEACH INTL AP_\{11171\},2.3004940720E-002,3.1739736684E-002,Pass,Pass,4.5408814686E-002,0.1827126621,Pass,Pass
 Warmup Convergence Information,S505 \- ELECTRIC ROOM_\{11564\},RunPeriod: RUNPERIOD_PALM BEACH INTL AP_\{11171\},1.9747730405E-002,2.7734475163E-002,Pass,Pass,6.2792684878E-002,0.2166788293,Pass,Pass
 Warmup Convergence Information,S506 \- VESTIBULE_\{11557\},RunPeriod: RUNPERIOD_PALM BEACH INTL AP_\{11171\},1.7418752157E-002,2.6219163628E-002,Pass,Pass,6.8171680007E-002,0.2464650814,Pass,Pass
 Warmup Convergence Information,S507 \- JANITOR_\{11550\},RunPeriod: RUNPERIOD_PALM BEACH INTL AP_\{11171\},1.7623267244E-002,2.7830033231E-002,Pass,Pass,6.7314842775E-002,0.2460659097,Pass,Pass
 Warmup Convergence Information,S508 \- AV_\{11543\},RunPeriod: RUNPERIOD_PALM BEACH INTL AP_\{11171\},2.1690067972E-002,3.0228805737E-002,Pass,Pass,5.5011012950E-002,0.1939754651,Pass,Pass
 Warmup Convergence Information,S509 \- ELEVATOR MACHINEROOM_\{11536\},RunPeriod: RUNPERIOD_PALM BEACH INTL AP_\{11171\},1.8630086212E-002,2.5057813174E-002,Pass,Pass,6.1341261241E-002,0.2150533825,Pass,Pass
 Warmup Convergence Information,S510 \- BREAKROOM_\{11529\},RunPeriod: RUNPERIOD_PALM BEACH INTL AP_\{11171\},2.2227203972E-002,3.0479139211E-002,Pass,Pass,5.4678019873E-002,0.1935317675,Pass,Pass
 Warmup Convergence Information,S511 \- OFFICE_\{11522\},RunPeriod: RUNPERIOD_PALM BEACH INTL AP_\{11171\},2.0507553122E-002,2.8362999961E-002,Pass,Pass,6.2469909271E-002,0.2187622901,Pass,Pass
 Warmup Convergence Information,S515 \- CONFERENCE ROOM_\{11515\},RunPeriod: RUNPERIOD_PALM BEACH INTL AP_\{11171\},4.8724026642E-002,4.9343208982E-002,Pass,Pass,6.0737772518E-002,0.2157632211,Pass,Pass
 Warmup Convergence Information,S516 \- OPENOFFICE_\{11508\},RunPeriod: RUNPERIOD_PALM BEACH INTL AP_\{11171\},3.6686415169E-002,4.3691380154E-002,Pass,Pass,5.1649614687E-002,0.1945585701,Pass,Pass
 Warmup Convergence Information,S517 \- EXECUTIVE OFFICE_\{11501\},RunPeriod: RUNPERIOD_PALM BEACH INTL AP_\{11171\},5.1649033232E-002,5.0823485174E-002,Pass,Pass,6.5274660196E-002,0.2503970370,Pass,Pass
 Warmup Convergence Information,S518 \- OFFICE_\{11494\},RunPeriod: RUNPERIOD_PALM BEACH INTL AP_\{11171\},2.0538231514E-002,2.7441198468E-002,Pass,Pass,6.0102605045E-002,0.2086555852,Pass,Pass
 Warmup Convergence Information,S519 \- OFFICE_\{11487\},RunPeriod: RUNPERIOD_PALM BEACH INTL AP_\{11171\},2.0844066947E-002,2.7350508880E-002,Pass,Pass,5.4690296695E-002,0.1954737611,Pass,Pass
 Warmup Convergence Information,S520 \- OFFICE_\{11480\},RunPeriod: RUNPERIOD_PALM BEACH INTL AP_\{11171\},2.0924832595E-002,2.8018701614E-002,Pass,Pass,6.6889911691E-002,0.2317543034,Pass,Pass
 Warmup Convergence Information,S521 \- OFFICE_\{11473\},RunPeriod: RUNPERIOD_PALM BEACH INTL AP_\{11171\},2.8345486439E-002,3.2177037655E-002,Pass,Pass,5.1688822934E-002,0.1950891700,Pass,Pass
 Warmup Convergence Information,S523 \- OFFICE_\{11466\},RunPeriod: RUNPERIOD_PALM BEACH INTL AP_\{11171\},2.0771897254E-002,2.7868746778E-002,Pass,Pass,6.1995032249E-002,0.2145998388,Pass,Pass
 Warmup Convergence Information,S524 \- OFFICE_\{11459\},RunPeriod: RUNPERIOD_PALM BEACH INTL AP_\{11171\},2.0596748545E-002,2.8213763447E-002,Pass,Pass,6.3365171791E-002,0.2185996315,Pass,Pass
 Warmup Convergence Information,S525 \- OFFICE_\{11452\},RunPeriod: RUNPERIOD_PALM BEACH INTL AP_\{11171\},2.0589213292E-002,2.8230705936E-002,Pass,Pass,6.3017124083E-002,0.2177193138,Pass,Pass
 Warmup Convergence Information,S526 \- OFFICE_\{11445\},RunPeriod: RUNPERIOD_PALM BEACH INTL AP_\{11171\},2.0196122798E-002,2.8161313809E-002,Pass,Pass,6.2334244053E-002,0.2182528983,Pass,Pass
 Warmup Convergence Information,S527 \- OFFICE_\{11438\},RunPeriod: RUNPERIOD_PALM BEACH INTL AP_\{11171\},2.0712926442E-002,2.8131114197E-002,Pass,Pass,6.6811881216E-002,0.2309490657,Pass,Pass
 Warmup Convergence Information,S528A INTERIOR \- OPEN OFFICE_\{11431\},RunPeriod: RUNPERIOD_PALM BEACH INTL AP_\{11171\},2.9694193236E-002,3.8252053903E-002,Pass,Pass,4.6310254660E-002,0.1747242514,Pass,Pass
 Warmup Convergence Information,S528A PERIMETER \- OPEN OFFICE_\{11424\},RunPeriod: RUNPERIOD_PALM BEACH INTL AP_\{11171\},9.0231270074E-002,9.1025654154E-002,Pass,Pass,7.8322357603E-002,0.2600015446,Pass,Pass
 Warmup Convergence Information,S528B INTERIOR \- OPEN OFFICE_\{11417\},RunPeriod: RUNPERIOD_PALM BEACH INTL AP_\{11171\},2.8976854968E-002,3.7179278679E-002,Pass,Pass,4.6514945716E-002,0.1760356589,Pass,Pass
 Warmup Convergence Information,S528B PERIMETER \- OPEN OFFICE_\{11410\},RunPeriod: RUNPERIOD_PALM BEACH INTL AP_\{11171\},8.8282190418E-002,8.7240168882E-002,Pass,Pass,8.0289264899E-002,0.2677947004,Pass,Pass
 Warmup Convergence Information,S529 \- COPY ROOM_\{11403\},RunPeriod: RUNPERIOD_PALM BEACH INTL AP_\{11171\},1.8046823402E-002,2.7931748917E-002,Pass,Pass,6.8176124506E-002,0.2535593770,Pass,Pass
 Warmup Convergence Information,S530 \- OFFICE_\{11396\},RunPeriod: RUNPERIOD_PALM BEACH INTL AP_\{11171\},2.0325717735E-002,2.8029465877E-002,Pass,Pass,6.3015074228E-002,0.2175914108,Pass,Pass
 Warmup Convergence Information,S531 \- OPEN OFFICE_\{11389\},RunPeriod: RUNPERIOD_PALM BEACH INTL AP_\{11171\},2.4323851074E-002,3.3899317179E-002,Pass,Pass,5.0331395967E-002,0.1812349246,Pass,Pass
 Warmup Convergence Information,S532 \- CONFERENCE_\{11382\},RunPeriod: RUNPERIOD_PALM BEACH INTL AP_\{11171\},2.2993337578E-002,3.1596589164E-002,Pass,Pass,5.0108675631E-002,0.1842627592,Pass,Pass
 Warmup Convergence Information,S533 \- OFFICE_\{11375\},RunPeriod: RUNPERIOD_PALM BEACH INTL AP_\{11171\},2.0284626311E-002,2.7274314506E-002,Pass,Pass,6.1525039500E-002,0.2132401433,Pass,Pass
 Warmup Convergence Information,S535 \- STORAGE_\{11368\},RunPeriod: RUNPERIOD_PALM BEACH INTL AP_\{11171\},1.8307434608E-002,2.5674828600E-002,Pass,Pass,6.9123816484E-002,0.2481547725,Pass,Pass
 Warmup Convergence Information,S536 \- BOOTH_\{11361\},RunPeriod: RUNPERIOD_PALM BEACH INTL AP_\{11171\},1.8316570959E-002,2.8284680164E-002,Pass,Pass,6.7651788850E-002,0.2485252493,Pass,Pass
 Warmup Convergence Information,S537 \- OFFICE_\{11354\},RunPeriod: RUNPERIOD_PALM BEACH INTL AP_\{11171\},2.0713691174E-002,2.7885758127E-002,Pass,Pass,6.6996889585E-002,0.2320045064,Pass,Pass
 Warmup Convergence Information,S538 \- OFFICE_\{11347\},RunPeriod: RUNPERIOD_PALM BEACH INTL AP_\{11171\},2.1126850818E-002,2.8092981406E-002,Pass,Pass,6.8057850225E-002,0.2334594508,Pass,Pass
 Warmup Convergence Information,S539 \- OFFICE_\{11340\},RunPeriod: RUNPERIOD_PALM BEACH INTL AP_\{11171\},2.7880452964E-002,3.2161546394E-002,Pass,Pass,5.1726567707E-002,0.1961961399,Pass,Pass
 Warmup Convergence Information,S540 \- OFFICE_\{11333\},RunPeriod: RUNPERIOD_PALM BEACH INTL AP_\{11171\},2.0727040194E-002,2.8074094340E-002,Pass,Pass,6.8847194597E-002,0.2420748097,Pass,Pass
 Warmup Convergence Information,S541 \- OFFICE_\{11326\},RunPeriod: RUNPERIOD_PALM BEACH INTL AP_\{11171\},2.0606461360E-002,2.7681291570E-002,Pass,Pass,6.2870985765E-002,0.2186368880,Pass,Pass
 Warmup Convergence Information,S544 \- EXECUTIVE OFFICE_\{11319\},RunPeriod: RUNPERIOD_PALM BEACH INTL AP_\{11171\},0.1100447495,0.2078996327,Pass,Pass,0.2548129455,1.2185518502,Pass,Pass
 Warmup Convergence Information,S545 \- EXECUTIVE OFFICE_\{11312\},RunPeriod: RUNPERIOD_PALM BEACH INTL AP_\{11171\},6.5196748495E-002,5.6040356070E-002,Pass,Pass,6.4504728643E-002,0.2193459540,Pass,Pass
 Warmup Convergence Information,S546 INTERIOR \- OPEN OFFICE_\{11305\},RunPeriod: RUNPERIOD_PALM BEACH INTL AP_\{11171\},3.4757608758E-002,3.9736438315E-002,Pass,Pass,5.4668560482E-002,0.2008492463,Pass,Pass
 Warmup Convergence Information,S546 PERIMETER \- OPEN OFFICE_\{11298\},RunPeriod: RUNPERIOD_PALM BEACH INTL AP_\{11171\},6.3430529723E-002,6.1553947485E-002,Pass,Pass,5.9962995872E-002,0.2089534684,Pass,Pass
 Warmup Convergence Information,S586 \- ELEVATOR SHAFT_\{11291\},RunPeriod: RUNPERIOD_PALM BEACH INTL AP_\{11171\},9.2512172272E-002,4.5656882381E-002,Pass,Pass,0.3388101047,2.1988221963,Pass,Pass
 Warmup Convergence Information,S587 \- ELEVATOR 3_\{11284\},RunPeriod: RUNPERIOD_PALM BEACH INTL AP_\{11171\},2.0937799727E-002,2.8300450959E-002,Pass,Pass,6.8281490803E-002,0.2349660891,Pass,Pass
 Warmup Convergence Information,S595 \- STAIR 2_\{11277\},RunPeriod: RUNPERIOD_PALM BEACH INTL AP_\{11171\},2.2677881612E-002,3.0426709607E-002,Pass,Pass,4.6169066558E-002,0.1843518021,Pass,Pass
 Warmup Convergence Information,S597 \- STAIR 4_\{11270\},RunPeriod: RUNPERIOD_PALM BEACH INTL AP_\{11171\},2.2225672472E-002,3.0271270554E-002,Pass,Pass,5.1084834260E-002,0.1872542334,Pass,Pass
 Warmup Convergence Information,THERMAL ZONE 1,RunPeriod: RUNPERIOD_PALM BEACH INTL AP_\{11171\},1.8617445015E-002,2.4757138210E-002,Pass,Pass,0.0000000000,0.0000000000,Pass,Pass
 Warmup Convergence Information,THERMAL ZONE 2,RunPeriod: RUNPERIOD_PALM BEACH INTL AP_\{11171\},2.2713641107E-002,2.3029782788E-002,Pass,Pass,0.0000000000,0.0000000000,Pass,Pass
 Warmup Convergence Information,THERMAL ZONE 3,RunPeriod: RUNPERIOD_PALM BEACH INTL AP_\{11171\},1.3575930805E-002,1.8122302401E-002,Pass,Pass,0.0000000000,0.0000000000,Pass,Pass
 Warmup Convergence Information,THERMAL ZONE 4,RunPeriod: RUNPERIOD_PALM BEACH INTL AP_\{11171\},1.7401156790E-002,1.7337401710E-002,Pass,Pass,0.0000000000,0.0000000000,Pass,Pass
 Warmup Convergence Information,THERMAL ZONE 5,RunPeriod: RUNPERIOD_PALM BEACH INTL AP_\{11171\},2.3267362813E-002,2.1616956569E-002,Pass,Pass,0.0000000000,0.0000000000,Pass,Pass
 Warmup Convergence Information,THERMAL ZONE 6,RunPeriod: RUNPERIOD_PALM BEACH INTL AP_\{11171\},8.4624377001E-002,4.6686782300E-002,Pass,Pass,0.0000000000,0.0000000000,Pass,Pass
 Warmup Convergence Information,THERMAL ZONE 7,RunPeriod: RUNPERIOD_PALM BEACH INTL AP_\{11171\},0.1332932780,6.2832553942E-002,Pass,Pass,0.0000000000,0.0000000000,Pass,Pass
! <Program Control Information:Threads/Parallel Sims>, Threading Supported,Maximum Number of Threads, Env Set Threads (OMP_NUM_THREADS), EP Env Set Threads (EP_OMP_NUM_THREADS), IDF Set Threads, Number of Threads Used (Interior Radiant Exchange), Number Nominal Surfaces, Number Parallel Sims
Program Control:Threads/Parallel Sims, No,1, N/A, N/A, N/A, N/A, N/A, N/A
End of Data
