Program Version,EnergyPlus, Version 24.2.0-94a887817b, YMD=2024.10.29 10:36
! This file shows details about the branches, nodes, and other
! elements of the flow connections.
! This file is intended for use in "debugging" potential problems
! that may also be detected by the program, but may be more easily
! identified by "eye".
! This file is also intended to support software which draws a
! schematic diagram of the HVAC system.
! ===============================================================
! #Nodes,<Number of Unique Nodes>
 #Nodes,4800
! <Node>,<NodeNumber>,<Node Name>,<Node Fluid Type>,<# Times Node Referenced After Definition>
 Node,1,NODE 2943,Air,3
 Node,2,NODE 2947,Air,3
 Node,3,NODE 2946,Air,3
 Node,4,NODE 2944,Air,2
 Node,5,NODE 2935,Air,3
 Node,6,NODE 2939,Air,3
 Node,7,NODE 2938,Air,3
 Node,8,NODE 2936,Air,2
 Node,9,NODE 2927,Air,3
 Node,10,NODE 2931,Air,3
 Node,11,NODE 2930,Air,3
 Node,12,NODE 2928,Air,2
 Node,13,NODE 2919,Air,3
 Node,14,NODE 2923,Air,3
 Node,15,NODE 2922,Air,3
 Node,16,NODE 2920,Air,2
 Node,17,NODE 2911,Air,3
 Node,18,NODE 2915,Air,3
 Node,19,NODE 2914,Air,3
 Node,20,NODE 2912,Air,2
 Node,21,NODE 2903,Air,3
 Node,22,NODE 2907,Air,3
 Node,23,NODE 2906,Air,3
 Node,24,NODE 2904,Air,2
 Node,25,NODE 2895,Air,3
 Node,26,NODE 2899,Air,3
 Node,27,NODE 2898,Air,3
 Node,28,NODE 2896,Air,2
 Node,29,NODE 2887,Air,3
 Node,30,NODE 2891,Air,3
 Node,31,NODE 2890,Air,3
 Node,32,NODE 2888,Air,2
 Node,33,NODE 2879,Air,3
 Node,34,NODE 2883,Air,3
 Node,35,NODE 2882,Air,3
 Node,36,NODE 2880,Air,2
 Node,37,NODE 2871,Air,3
 Node,38,NODE 2875,Air,3
 Node,39,NODE 2874,Air,3
 Node,40,NODE 2872,Air,2
 Node,41,NODE 2863,Air,3
 Node,42,NODE 2867,Air,3
 Node,43,NODE 2866,Air,3
 Node,44,NODE 2864,Air,2
 Node,45,NODE 2855,Air,3
 Node,46,NODE 2859,Air,3
 Node,47,NODE 2858,Air,3
 Node,48,NODE 2856,Air,2
 Node,49,NODE 2847,Air,3
 Node,50,NODE 2851,Air,3
 Node,51,NODE 2850,Air,3
 Node,52,NODE 2848,Air,2
 Node,53,NODE 2839,Air,3
 Node,54,NODE 2843,Air,3
 Node,55,NODE 2842,Air,3
 Node,56,NODE 2840,Air,2
 Node,57,NODE 2831,Air,3
 Node,58,NODE 2835,Air,3
 Node,59,NODE 2834,Air,3
 Node,60,NODE 2832,Air,2
 Node,61,NODE 2823,Air,3
 Node,62,NODE 2827,Air,3
 Node,63,NODE 2819,Air,2
 Node,64,NODE 2826,Air,3
 Node,65,NODE 2824,Air,2
 Node,66,NODE 2813,Air,3
 Node,67,NODE 2817,Air,3
 Node,68,NODE 2816,Air,3
 Node,69,NODE 2814,Air,2
 Node,70,NODE 2805,Air,3
 Node,71,NODE 2809,Air,3
 Node,72,NODE 2801,Air,2
 Node,73,NODE 2808,Air,3
 Node,74,NODE 2806,Air,2
 Node,75,NODE 2795,Air,3
 Node,76,NODE 2799,Air,3
 Node,77,NODE 2798,Air,3
 Node,78,NODE 2796,Air,2
 Node,79,NODE 2787,Air,3
 Node,80,NODE 2791,Air,3
 Node,81,NODE 2790,Air,3
 Node,82,NODE 2788,Air,2
 Node,83,NODE 2779,Air,3
 Node,84,NODE 2783,Air,3
 Node,85,NODE 2782,Air,3
 Node,86,NODE 2780,Air,2
 Node,87,NODE 2771,Air,3
 Node,88,NODE 2775,Air,3
 Node,89,NODE 2774,Air,3
 Node,90,NODE 2772,Air,2
 Node,91,NODE 2763,Air,3
 Node,92,NODE 2767,Air,3
 Node,93,NODE 2766,Air,3
 Node,94,NODE 2764,Air,2
 Node,95,NODE 2755,Air,3
 Node,96,NODE 2759,Air,3
 Node,97,NODE 2758,Air,3
 Node,98,NODE 2756,Air,2
 Node,99,NODE 2747,Air,3
 Node,100,NODE 2751,Air,3
 Node,101,NODE 2750,Air,3
 Node,102,NODE 2748,Air,2
 Node,103,NODE 2739,Air,3
 Node,104,NODE 2743,Air,3
 Node,105,NODE 2742,Air,3
 Node,106,NODE 2740,Air,2
 Node,107,NODE 2731,Air,3
 Node,108,NODE 2735,Air,3
 Node,109,NODE 2734,Air,3
 Node,110,NODE 2732,Air,2
 Node,111,NODE 2723,Air,3
 Node,112,NODE 2727,Air,3
 Node,113,NODE 2726,Air,3
 Node,114,NODE 2724,Air,2
 Node,115,NODE 2665,Air,3
 Node,116,NODE 2669,Air,3
 Node,117,NODE 2661,Air,2
 Node,118,NODE 2668,Air,3
 Node,119,NODE 2666,Air,2
 Node,120,NODE 2707,Air,3
 Node,121,NODE 2711,Air,3
 Node,122,NODE 2703,Air,2
 Node,123,NODE 2710,Air,3
 Node,124,NODE 2708,Air,2
 Node,125,NODE 2697,Air,3
 Node,126,NODE 2701,Air,3
 Node,127,NODE 2700,Air,3
 Node,128,NODE 2698,Air,2
 Node,129,NODE 2689,Air,3
 Node,130,NODE 2693,Air,3
 Node,131,NODE 2692,Air,3
 Node,132,NODE 2690,Air,2
 Node,133,NODE 2681,Air,3
 Node,134,NODE 2685,Air,3
 Node,135,NODE 2684,Air,3
 Node,136,NODE 2682,Air,2
 Node,137,NODE 2673,Air,3
 Node,138,NODE 2677,Air,3
 Node,139,NODE 2676,Air,3
 Node,140,NODE 2674,Air,2
 Node,141,NODE 2655,Air,3
 Node,142,NODE 2659,Air,3
 Node,143,NODE 2658,Air,3
 Node,144,NODE 2656,Air,2
 Node,145,NODE 2647,Air,3
 Node,146,NODE 2651,Air,3
 Node,147,NODE 2650,Air,3
 Node,148,NODE 2648,Air,2
 Node,149,NODE 2639,Air,3
 Node,150,NODE 2643,Air,3
 Node,151,NODE 2642,Air,3
 Node,152,NODE 2640,Air,2
 Node,153,NODE 2631,Air,3
 Node,154,NODE 2635,Air,3
 Node,155,NODE 2634,Air,3
 Node,156,NODE 2632,Air,2
 Node,157,NODE 2623,Air,3
 Node,158,NODE 2627,Air,3
 Node,159,NODE 2626,Air,3
 Node,160,NODE 2624,Air,2
 Node,161,NODE 2615,Air,3
 Node,162,NODE 2619,Air,3
 Node,163,NODE 2618,Air,3
 Node,164,NODE 2616,Air,2
 Node,165,NODE 2607,Air,3
 Node,166,NODE 2611,Air,3
 Node,167,NODE 2610,Air,3
 Node,168,NODE 2608,Air,2
 Node,169,NODE 2599,Air,3
 Node,170,NODE 2603,Air,3
 Node,171,NODE 2602,Air,3
 Node,172,NODE 2600,Air,2
 Node,173,NODE 2715,Air,3
 Node,174,NODE 2719,Air,3
 Node,175,NODE 2718,Air,3
 Node,176,NODE 2716,Air,2
 Node,177,NODE 2591,Air,3
 Node,178,NODE 2595,Air,3
 Node,179,NODE 2594,Air,3
 Node,180,NODE 2592,Air,2
 Node,181,NODE 2583,Air,3
 Node,182,NODE 2587,Air,3
 Node,183,NODE 2586,Air,3
 Node,184,NODE 2584,Air,2
 Node,185,NODE 2575,Air,3
 Node,186,NODE 2579,Air,3
 Node,187,NODE 2578,Air,3
 Node,188,NODE 2576,Air,2
 Node,189,NODE 2567,Air,3
 Node,190,NODE 2571,Air,3
 Node,191,NODE 2570,Air,3
 Node,192,NODE 2568,Air,2
 Node,193,NODE 2559,Air,3
 Node,194,NODE 2563,Air,3
 Node,195,NODE 2562,Air,3
 Node,196,NODE 2560,Air,2
 Node,197,NODE 2551,Air,3
 Node,198,NODE 2555,Air,3
 Node,199,NODE 2554,Air,3
 Node,200,NODE 2552,Air,2
 Node,201,NODE 2543,Air,3
 Node,202,NODE 2547,Air,3
 Node,203,NODE 2546,Air,3
 Node,204,NODE 2544,Air,2
 Node,205,NODE 2535,Air,3
 Node,206,NODE 2539,Air,3
 Node,207,NODE 2538,Air,3
 Node,208,NODE 2536,Air,2
 Node,209,NODE 2527,Air,3
 Node,210,NODE 2531,Air,3
 Node,211,NODE 2530,Air,3
 Node,212,NODE 2528,Air,2
 Node,213,NODE 2519,Air,3
 Node,214,NODE 2523,Air,3
 Node,215,NODE 2522,Air,3
 Node,216,NODE 2520,Air,2
 Node,217,NODE 2511,Air,3
 Node,218,NODE 2515,Air,3
 Node,219,NODE 2514,Air,3
 Node,220,NODE 2512,Air,2
 Node,221,NODE 2503,Air,3
 Node,222,NODE 2507,Air,3
 Node,223,NODE 2506,Air,3
 Node,224,NODE 2504,Air,2
 Node,225,NODE 2495,Air,3
 Node,226,NODE 2499,Air,3
 Node,227,NODE 2498,Air,3
 Node,228,NODE 2496,Air,2
 Node,229,NODE 2487,Air,3
 Node,230,NODE 2491,Air,3
 Node,231,NODE 2490,Air,3
 Node,232,NODE 2488,Air,2
 Node,233,NODE 2479,Air,3
 Node,234,NODE 2483,Air,3
 Node,235,NODE 2482,Air,3
 Node,236,NODE 2480,Air,2
 Node,237,NODE 2471,Air,3
 Node,238,NODE 2475,Air,3
 Node,239,NODE 2474,Air,3
 Node,240,NODE 2472,Air,2
 Node,241,NODE 2463,Air,3
 Node,242,NODE 2467,Air,3
 Node,243,NODE 2466,Air,3
 Node,244,NODE 2464,Air,2
 Node,245,NODE 2455,Air,3
 Node,246,NODE 2459,Air,3
 Node,247,NODE 2458,Air,3
 Node,248,NODE 2456,Air,2
 Node,249,NODE 2447,Air,3
 Node,250,NODE 2451,Air,3
 Node,251,NODE 2450,Air,3
 Node,252,NODE 2448,Air,2
 Node,253,NODE 2439,Air,3
 Node,254,NODE 2443,Air,3
 Node,255,NODE 2442,Air,3
 Node,256,NODE 2440,Air,2
 Node,257,NODE 2431,Air,3
 Node,258,NODE 2435,Air,3
 Node,259,NODE 2434,Air,3
 Node,260,NODE 2432,Air,2
 Node,261,NODE 2423,Air,3
 Node,262,NODE 2427,Air,3
 Node,263,NODE 2426,Air,3
 Node,264,NODE 2424,Air,2
 Node,265,NODE 2415,Air,3
 Node,266,NODE 2419,Air,3
 Node,267,NODE 2418,Air,3
 Node,268,NODE 2416,Air,2
 Node,269,NODE 2407,Air,3
 Node,270,NODE 2411,Air,3
 Node,271,NODE 2410,Air,3
 Node,272,NODE 2408,Air,2
 Node,273,NODE 2399,Air,3
 Node,274,NODE 2403,Air,3
 Node,275,NODE 2402,Air,3
 Node,276,NODE 2400,Air,2
 Node,277,NODE 2391,Air,3
 Node,278,NODE 2395,Air,3
 Node,279,NODE 2394,Air,3
 Node,280,NODE 2392,Air,2
 Node,281,NODE 2383,Air,3
 Node,282,NODE 2387,Air,3
 Node,283,NODE 2386,Air,3
 Node,284,NODE 2384,Air,2
 Node,285,NODE 2375,Air,3
 Node,286,NODE 2379,Air,3
 Node,287,NODE 2378,Air,3
 Node,288,NODE 2376,Air,2
 Node,289,NODE 2367,Air,3
 Node,290,NODE 2371,Air,3
 Node,291,NODE 2370,Air,3
 Node,292,NODE 2368,Air,2
 Node,293,NODE 2359,Air,3
 Node,294,NODE 2363,Air,3
 Node,295,NODE 2362,Air,3
 Node,296,NODE 2360,Air,2
 Node,297,NODE 2351,Air,3
 Node,298,NODE 2355,Air,3
 Node,299,NODE 2354,Air,3
 Node,300,NODE 2352,Air,2
 Node,301,NODE 2343,Air,3
 Node,302,NODE 2347,Air,3
 Node,303,NODE 2346,Air,3
 Node,304,NODE 2344,Air,2
 Node,305,NODE 2335,Air,3
 Node,306,NODE 2339,Air,3
 Node,307,NODE 2338,Air,3
 Node,308,NODE 2336,Air,2
 Node,309,NODE 2327,Air,3
 Node,310,NODE 2331,Air,3
 Node,311,NODE 2330,Air,3
 Node,312,NODE 2328,Air,2
 Node,313,NODE 2319,Air,3
 Node,314,NODE 2323,Air,3
 Node,315,NODE 2322,Air,3
 Node,316,NODE 2320,Air,2
 Node,317,NODE 2311,Air,3
 Node,318,NODE 2315,Air,3
 Node,319,NODE 2314,Air,3
 Node,320,NODE 2312,Air,2
 Node,321,NODE 2303,Air,3
 Node,322,NODE 2307,Air,3
 Node,323,NODE 2306,Air,3
 Node,324,NODE 2304,Air,2
 Node,325,NODE 2295,Air,3
 Node,326,NODE 2299,Air,3
 Node,327,NODE 2298,Air,3
 Node,328,NODE 2296,Air,2
 Node,329,NODE 2287,Air,3
 Node,330,NODE 2291,Air,3
 Node,331,NODE 2290,Air,3
 Node,332,NODE 2288,Air,2
 Node,333,NODE 2279,Air,3
 Node,334,NODE 2283,Air,3
 Node,335,NODE 2282,Air,3
 Node,336,NODE 2280,Air,2
 Node,337,NODE 2271,Air,3
 Node,338,NODE 2275,Air,3
 Node,339,NODE 2274,Air,3
 Node,340,NODE 2272,Air,2
 Node,341,NODE 2263,Air,3
 Node,342,NODE 2267,Air,3
 Node,343,NODE 2266,Air,3
 Node,344,NODE 2264,Air,2
 Node,345,NODE 2255,Air,3
 Node,346,NODE 2259,Air,3
 Node,347,NODE 2258,Air,3
 Node,348,NODE 2256,Air,2
 Node,349,NODE 2247,Air,3
 Node,350,NODE 2251,Air,3
 Node,351,NODE 2250,Air,3
 Node,352,NODE 2248,Air,2
 Node,353,NODE 2239,Air,3
 Node,354,NODE 2243,Air,3
 Node,355,NODE 2242,Air,3
 Node,356,NODE 2240,Air,2
 Node,357,NODE 2231,Air,3
 Node,358,NODE 2235,Air,3
 Node,359,NODE 2234,Air,3
 Node,360,NODE 2232,Air,2
 Node,361,NODE 2223,Air,3
 Node,362,NODE 2227,Air,3
 Node,363,NODE 2226,Air,3
 Node,364,NODE 2224,Air,2
 Node,365,NODE 2215,Air,3
 Node,366,NODE 2219,Air,3
 Node,367,NODE 2218,Air,3
 Node,368,NODE 2216,Air,2
 Node,369,NODE 2207,Air,3
 Node,370,NODE 2211,Air,3
 Node,371,NODE 2210,Air,3
 Node,372,NODE 2208,Air,2
 Node,373,NODE 2199,Air,3
 Node,374,NODE 2203,Air,3
 Node,375,NODE 2202,Air,3
 Node,376,NODE 2200,Air,2
 Node,377,NODE 2191,Air,3
 Node,378,NODE 2195,Air,3
 Node,379,NODE 2194,Air,3
 Node,380,NODE 2192,Air,2
 Node,381,NODE 2183,Air,3
 Node,382,NODE 2187,Air,3
 Node,383,NODE 2186,Air,3
 Node,384,NODE 2184,Air,2
 Node,385,NODE 2175,Air,3
 Node,386,NODE 2179,Air,3
 Node,387,NODE 2178,Air,3
 Node,388,NODE 2176,Air,2
 Node,389,NODE 2167,Air,3
 Node,390,NODE 2171,Air,3
 Node,391,NODE 2170,Air,3
 Node,392,NODE 2168,Air,2
 Node,393,NODE 2159,Air,3
 Node,394,NODE 2163,Air,3
 Node,395,NODE 2162,Air,3
 Node,396,NODE 2160,Air,2
 Node,397,NODE 2151,Air,3
 Node,398,NODE 2155,Air,3
 Node,399,NODE 2154,Air,3
 Node,400,NODE 2152,Air,2
 Node,401,NODE 2143,Air,3
 Node,402,NODE 2147,Air,3
 Node,403,NODE 2146,Air,3
 Node,404,NODE 2144,Air,2
 Node,405,NODE 2135,Air,3
 Node,406,NODE 2139,Air,3
 Node,407,NODE 2138,Air,3
 Node,408,NODE 2136,Air,2
 Node,409,NODE 2127,Air,3
 Node,410,NODE 2131,Air,3
 Node,411,NODE 2130,Air,3
 Node,412,NODE 2128,Air,2
 Node,413,NODE 2119,Air,3
 Node,414,NODE 2123,Air,3
 Node,415,NODE 2122,Air,3
 Node,416,NODE 2120,Air,2
 Node,417,NODE 2111,Air,3
 Node,418,NODE 2115,Air,3
 Node,419,NODE 2114,Air,3
 Node,420,NODE 2112,Air,2
 Node,421,NODE 2103,Air,3
 Node,422,NODE 2107,Air,3
 Node,423,NODE 2106,Air,3
 Node,424,NODE 2104,Air,2
 Node,425,NODE 2095,Air,3
 Node,426,NODE 2099,Air,3
 Node,427,NODE 2098,Air,3
 Node,428,NODE 2096,Air,2
 Node,429,NODE 2087,Air,3
 Node,430,NODE 2091,Air,3
 Node,431,NODE 2090,Air,3
 Node,432,NODE 2088,Air,2
 Node,433,NODE 2079,Air,3
 Node,434,NODE 2083,Air,3
 Node,435,NODE 2082,Air,3
 Node,436,NODE 2080,Air,2
 Node,437,NODE 2071,Air,3
 Node,438,NODE 2075,Air,3
 Node,439,NODE 2074,Air,3
 Node,440,NODE 2072,Air,2
 Node,441,NODE 2063,Air,3
 Node,442,NODE 2067,Air,3
 Node,443,NODE 2066,Air,3
 Node,444,NODE 2064,Air,2
 Node,445,NODE 2055,Air,3
 Node,446,NODE 2059,Air,3
 Node,447,NODE 2058,Air,3
 Node,448,NODE 2056,Air,2
 Node,449,NODE 2047,Air,3
 Node,450,NODE 2051,Air,3
 Node,451,NODE 2050,Air,3
 Node,452,NODE 2048,Air,2
 Node,453,NODE 2039,Air,3
 Node,454,NODE 2043,Air,3
 Node,455,NODE 2042,Air,3
 Node,456,NODE 2040,Air,2
 Node,457,NODE 2031,Air,3
 Node,458,NODE 2035,Air,3
 Node,459,NODE 2034,Air,3
 Node,460,NODE 2032,Air,2
 Node,461,NODE 2023,Air,3
 Node,462,NODE 2027,Air,3
 Node,463,NODE 2026,Air,3
 Node,464,NODE 2024,Air,2
 Node,465,NODE 2015,Air,3
 Node,466,NODE 2019,Air,3
 Node,467,NODE 2018,Air,3
 Node,468,NODE 2016,Air,2
 Node,469,NODE 2007,Air,3
 Node,470,NODE 2011,Air,3
 Node,471,NODE 2010,Air,3
 Node,472,NODE 2008,Air,2
 Node,473,NODE 1999,Air,3
 Node,474,NODE 2003,Air,3
 Node,475,NODE 2002,Air,3
 Node,476,NODE 2000,Air,2
 Node,477,NODE 1991,Air,3
 Node,478,NODE 1995,Air,3
 Node,479,NODE 1994,Air,3
 Node,480,NODE 1992,Air,2
 Node,481,NODE 1983,Air,3
 Node,482,NODE 1987,Air,3
 Node,483,NODE 1986,Air,3
 Node,484,NODE 1984,Air,2
 Node,485,NODE 1975,Air,3
 Node,486,NODE 1979,Air,3
 Node,487,NODE 1978,Air,3
 Node,488,NODE 1976,Air,2
 Node,489,NODE 1967,Air,3
 Node,490,NODE 1971,Air,3
 Node,491,NODE 1970,Air,3
 Node,492,NODE 1968,Air,2
 Node,493,NODE 1959,Air,3
 Node,494,NODE 1963,Air,3
 Node,495,NODE 1962,Air,3
 Node,496,NODE 1960,Air,2
 Node,497,NODE 1951,Air,3
 Node,498,NODE 1955,Air,3
 Node,499,NODE 1954,Air,3
 Node,500,NODE 1952,Air,2
 Node,501,NODE 1943,Air,3
 Node,502,NODE 1947,Air,3
 Node,503,NODE 1946,Air,3
 Node,504,NODE 1944,Air,2
 Node,505,NODE 1935,Air,3
 Node,506,NODE 1939,Air,3
 Node,507,NODE 1938,Air,3
 Node,508,NODE 1936,Air,2
 Node,509,NODE 1927,Air,3
 Node,510,NODE 1931,Air,3
 Node,511,NODE 1930,Air,3
 Node,512,NODE 1928,Air,2
 Node,513,NODE 1919,Air,3
 Node,514,NODE 1923,Air,3
 Node,515,NODE 1922,Air,3
 Node,516,NODE 1920,Air,2
 Node,517,NODE 1911,Air,3
 Node,518,NODE 1915,Air,3
 Node,519,NODE 1914,Air,3
 Node,520,NODE 1912,Air,2
 Node,521,NODE 1903,Air,3
 Node,522,NODE 1907,Air,3
 Node,523,NODE 1906,Air,3
 Node,524,NODE 1904,Air,2
 Node,525,NODE 1895,Air,3
 Node,526,NODE 1899,Air,3
 Node,527,NODE 1898,Air,3
 Node,528,NODE 1896,Air,2
 Node,529,NODE 1887,Air,3
 Node,530,NODE 1891,Air,3
 Node,531,NODE 1890,Air,3
 Node,532,NODE 1888,Air,2
 Node,533,NODE 1879,Air,3
 Node,534,NODE 1883,Air,3
 Node,535,NODE 1882,Air,3
 Node,536,NODE 1880,Air,2
 Node,537,NODE 1871,Air,3
 Node,538,NODE 1875,Air,3
 Node,539,NODE 1874,Air,3
 Node,540,NODE 1872,Air,2
 Node,541,NODE 1863,Air,3
 Node,542,NODE 1867,Air,3
 Node,543,NODE 1866,Air,3
 Node,544,NODE 1864,Air,2
 Node,545,NODE 1855,Air,3
 Node,546,NODE 1859,Air,3
 Node,547,NODE 1858,Air,3
 Node,548,NODE 1856,Air,2
 Node,549,NODE 1847,Air,3
 Node,550,NODE 1851,Air,3
 Node,551,NODE 1850,Air,3
 Node,552,NODE 1848,Air,2
 Node,553,NODE 1839,Air,3
 Node,554,NODE 1843,Air,3
 Node,555,NODE 1842,Air,3
 Node,556,NODE 1840,Air,2
 Node,557,NODE 1831,Air,3
 Node,558,NODE 1835,Air,3
 Node,559,NODE 1834,Air,3
 Node,560,NODE 1832,Air,2
 Node,561,NODE 1823,Air,3
 Node,562,NODE 1827,Air,3
 Node,563,NODE 1826,Air,3
 Node,564,NODE 1824,Air,2
 Node,565,NODE 1815,Air,3
 Node,566,NODE 1819,Air,3
 Node,567,NODE 1818,Air,3
 Node,568,NODE 1816,Air,2
 Node,569,NODE 1807,Air,3
 Node,570,NODE 1811,Air,3
 Node,571,NODE 1810,Air,3
 Node,572,NODE 1808,Air,2
 Node,573,NODE 1799,Air,3
 Node,574,NODE 1803,Air,3
 Node,575,NODE 1802,Air,3
 Node,576,NODE 1800,Air,2
 Node,577,NODE 1791,Air,3
 Node,578,NODE 1795,Air,3
 Node,579,NODE 1794,Air,3
 Node,580,NODE 1792,Air,2
 Node,581,NODE 1783,Air,3
 Node,582,NODE 1787,Air,3
 Node,583,NODE 1786,Air,3
 Node,584,NODE 1784,Air,2
 Node,585,NODE 1775,Air,3
 Node,586,NODE 1779,Air,3
 Node,587,NODE 1778,Air,3
 Node,588,NODE 1776,Air,2
 Node,589,NODE 1767,Air,3
 Node,590,NODE 1771,Air,3
 Node,591,NODE 1770,Air,3
 Node,592,NODE 1768,Air,2
 Node,593,NODE 1759,Air,3
 Node,594,NODE 1763,Air,3
 Node,595,NODE 1762,Air,3
 Node,596,NODE 1760,Air,2
 Node,597,NODE 1751,Air,3
 Node,598,NODE 1755,Air,3
 Node,599,NODE 1754,Air,3
 Node,600,NODE 1752,Air,2
 Node,601,NODE 1743,Air,3
 Node,602,NODE 1747,Air,3
 Node,603,NODE 1746,Air,3
 Node,604,NODE 1744,Air,2
 Node,605,NODE 1735,Air,3
 Node,606,NODE 1739,Air,3
 Node,607,NODE 1738,Air,3
 Node,608,NODE 1736,Air,2
 Node,609,NODE 1727,Air,3
 Node,610,NODE 1731,Air,3
 Node,611,NODE 1730,Air,3
 Node,612,NODE 1728,Air,2
 Node,613,NODE 1719,Air,3
 Node,614,NODE 1723,Air,3
 Node,615,NODE 1722,Air,3
 Node,616,NODE 1720,Air,2
 Node,617,NODE 1711,Air,3
 Node,618,NODE 1715,Air,3
 Node,619,NODE 1714,Air,3
 Node,620,NODE 1712,Air,2
 Node,621,NODE 1703,Air,3
 Node,622,NODE 1707,Air,3
 Node,623,NODE 1706,Air,3
 Node,624,NODE 1704,Air,2
 Node,625,NODE 1695,Air,3
 Node,626,NODE 1699,Air,3
 Node,627,NODE 1698,Air,3
 Node,628,NODE 1696,Air,2
 Node,629,NODE 1687,Air,3
 Node,630,NODE 1691,Air,3
 Node,631,NODE 1690,Air,3
 Node,632,NODE 1688,Air,2
 Node,633,NODE 1679,Air,3
 Node,634,NODE 1683,Air,3
 Node,635,NODE 1682,Air,3
 Node,636,NODE 1680,Air,2
 Node,637,NODE 1671,Air,3
 Node,638,NODE 1675,Air,3
 Node,639,NODE 1674,Air,3
 Node,640,NODE 1672,Air,2
 Node,641,NODE 1663,Air,3
 Node,642,NODE 1667,Air,3
 Node,643,NODE 1666,Air,3
 Node,644,NODE 1664,Air,2
 Node,645,NODE 1655,Air,3
 Node,646,NODE 1659,Air,3
 Node,647,NODE 1658,Air,3
 Node,648,NODE 1656,Air,2
 Node,649,NODE 1647,Air,3
 Node,650,NODE 1651,Air,3
 Node,651,NODE 1650,Air,3
 Node,652,NODE 1648,Air,2
 Node,653,NODE 1639,Air,3
 Node,654,NODE 1643,Air,3
 Node,655,NODE 1642,Air,3
 Node,656,NODE 1640,Air,2
 Node,657,NODE 1631,Air,3
 Node,658,NODE 1635,Air,3
 Node,659,NODE 1634,Air,3
 Node,660,NODE 1632,Air,2
 Node,661,NODE 1623,Air,3
 Node,662,NODE 1627,Air,3
 Node,663,NODE 1626,Air,3
 Node,664,NODE 1624,Air,2
 Node,665,NODE 1615,Air,3
 Node,666,NODE 1619,Air,3
 Node,667,NODE 1618,Air,3
 Node,668,NODE 1616,Air,2
 Node,669,NODE 1607,Air,3
 Node,670,NODE 1611,Air,3
 Node,671,NODE 1610,Air,3
 Node,672,NODE 1608,Air,2
 Node,673,NODE 1599,Air,3
 Node,674,NODE 1603,Air,3
 Node,675,NODE 1602,Air,3
 Node,676,NODE 1600,Air,2
 Node,677,NODE 1591,Air,3
 Node,678,NODE 1595,Air,3
 Node,679,NODE 1594,Air,3
 Node,680,NODE 1592,Air,2
 Node,681,NODE 1583,Air,3
 Node,682,NODE 1587,Air,3
 Node,683,NODE 1586,Air,3
 Node,684,NODE 1584,Air,2
 Node,685,NODE 1575,Air,3
 Node,686,NODE 1579,Air,3
 Node,687,NODE 1578,Air,3
 Node,688,NODE 1576,Air,2
 Node,689,NODE 1567,Air,3
 Node,690,NODE 1571,Air,3
 Node,691,NODE 1570,Air,3
 Node,692,NODE 1568,Air,2
 Node,693,NODE 1559,Air,3
 Node,694,NODE 1563,Air,3
 Node,695,NODE 1562,Air,3
 Node,696,NODE 1560,Air,2
 Node,697,NODE 1551,Air,3
 Node,698,NODE 1555,Air,3
 Node,699,NODE 1554,Air,3
 Node,700,NODE 1552,Air,2
 Node,701,NODE 1543,Air,3
 Node,702,NODE 1547,Air,3
 Node,703,NODE 1546,Air,3
 Node,704,NODE 1544,Air,2
 Node,705,NODE 1535,Air,3
 Node,706,NODE 1539,Air,3
 Node,707,NODE 1538,Air,3
 Node,708,NODE 1536,Air,2
 Node,709,NODE 1527,Air,3
 Node,710,NODE 1531,Air,3
 Node,711,NODE 1530,Air,3
 Node,712,NODE 1528,Air,2
 Node,713,NODE 1519,Air,3
 Node,714,NODE 1523,Air,3
 Node,715,NODE 1522,Air,3
 Node,716,NODE 1520,Air,2
 Node,717,NODE 1511,Air,3
 Node,718,NODE 1515,Air,3
 Node,719,NODE 1514,Air,3
 Node,720,NODE 1512,Air,2
 Node,721,NODE 1503,Air,3
 Node,722,NODE 1507,Air,3
 Node,723,NODE 1506,Air,3
 Node,724,NODE 1504,Air,2
 Node,725,NODE 1495,Air,3
 Node,726,NODE 1499,Air,3
 Node,727,NODE 1498,Air,3
 Node,728,NODE 1496,Air,2
 Node,729,NODE 1487,Air,3
 Node,730,NODE 1491,Air,3
 Node,731,NODE 1490,Air,3
 Node,732,NODE 1488,Air,2
 Node,733,NODE 1479,Air,3
 Node,734,NODE 1483,Air,3
 Node,735,NODE 1482,Air,3
 Node,736,NODE 1480,Air,2
 Node,737,NODE 1471,Air,3
 Node,738,NODE 1475,Air,3
 Node,739,NODE 1474,Air,3
 Node,740,NODE 1472,Air,2
 Node,741,NODE 1463,Air,3
 Node,742,NODE 1467,Air,3
 Node,743,NODE 1466,Air,3
 Node,744,NODE 1464,Air,2
 Node,745,NODE 1455,Air,3
 Node,746,NODE 1459,Air,3
 Node,747,NODE 1458,Air,3
 Node,748,NODE 1456,Air,2
 Node,749,NODE 1447,Air,3
 Node,750,NODE 1451,Air,3
 Node,751,NODE 1450,Air,3
 Node,752,NODE 1448,Air,2
 Node,753,NODE 1439,Air,3
 Node,754,NODE 1443,Air,3
 Node,755,NODE 1442,Air,3
 Node,756,NODE 1440,Air,2
 Node,757,NODE 1431,Air,3
 Node,758,NODE 1435,Air,3
 Node,759,NODE 1434,Air,3
 Node,760,NODE 1432,Air,2
 Node,761,NODE 1423,Air,3
 Node,762,NODE 1427,Air,3
 Node,763,NODE 1426,Air,3
 Node,764,NODE 1424,Air,2
 Node,765,NODE 1415,Air,3
 Node,766,NODE 1419,Air,3
 Node,767,NODE 1418,Air,3
 Node,768,NODE 1416,Air,2
 Node,769,NODE 1407,Air,3
 Node,770,NODE 1411,Air,3
 Node,771,NODE 1410,Air,3
 Node,772,NODE 1408,Air,2
 Node,773,NODE 1399,Air,3
 Node,774,NODE 1403,Air,3
 Node,775,NODE 1402,Air,3
 Node,776,NODE 1400,Air,2
 Node,777,NODE 1391,Air,3
 Node,778,NODE 1395,Air,3
 Node,779,NODE 1394,Air,3
 Node,780,NODE 1392,Air,2
 Node,781,NODE 1383,Air,3
 Node,782,NODE 1387,Air,3
 Node,783,NODE 1386,Air,3
 Node,784,NODE 1384,Air,2
 Node,785,NODE 1375,Air,3
 Node,786,NODE 1379,Air,3
 Node,787,NODE 1378,Air,3
 Node,788,NODE 1376,Air,2
 Node,789,NODE 1367,Air,3
 Node,790,NODE 1371,Air,3
 Node,791,NODE 1370,Air,3
 Node,792,NODE 1368,Air,2
 Node,793,NODE 1359,Air,3
 Node,794,NODE 1363,Air,3
 Node,795,NODE 1362,Air,3
 Node,796,NODE 1360,Air,2
 Node,797,NODE 1351,Air,3
 Node,798,NODE 1355,Air,3
 Node,799,NODE 1354,Air,3
 Node,800,NODE 1352,Air,2
 Node,801,NODE 1343,Air,3
 Node,802,NODE 1347,Air,3
 Node,803,NODE 1346,Air,3
 Node,804,NODE 1344,Air,2
 Node,805,NODE 1335,Air,3
 Node,806,NODE 1339,Air,3
 Node,807,NODE 1338,Air,3
 Node,808,NODE 1336,Air,2
 Node,809,NODE 1327,Air,3
 Node,810,NODE 1331,Air,3
 Node,811,NODE 1330,Air,3
 Node,812,NODE 1328,Air,2
 Node,813,NODE 1319,Air,3
 Node,814,NODE 1323,Air,3
 Node,815,NODE 1322,Air,3
 Node,816,NODE 1320,Air,2
 Node,817,NODE 1311,Air,3
 Node,818,NODE 1315,Air,3
 Node,819,NODE 1314,Air,3
 Node,820,NODE 1312,Air,2
 Node,821,NODE 1303,Air,3
 Node,822,NODE 1307,Air,3
 Node,823,NODE 1306,Air,3
 Node,824,NODE 1304,Air,2
 Node,825,NODE 1295,Air,3
 Node,826,NODE 1299,Air,3
 Node,827,NODE 1298,Air,3
 Node,828,NODE 1296,Air,2
 Node,829,NODE 1287,Air,3
 Node,830,NODE 1291,Air,3
 Node,831,NODE 1290,Air,3
 Node,832,NODE 1288,Air,2
 Node,833,NODE 1279,Air,3
 Node,834,NODE 1283,Air,3
 Node,835,NODE 1282,Air,3
 Node,836,NODE 1280,Air,2
 Node,837,NODE 1271,Air,3
 Node,838,NODE 1275,Air,3
 Node,839,NODE 1274,Air,3
 Node,840,NODE 1272,Air,2
 Node,841,NODE 1263,Air,3
 Node,842,NODE 1267,Air,3
 Node,843,NODE 1266,Air,3
 Node,844,NODE 1264,Air,2
 Node,845,NODE 1255,Air,3
 Node,846,NODE 1259,Air,3
 Node,847,NODE 1258,Air,3
 Node,848,NODE 1256,Air,2
 Node,849,NODE 1247,Air,3
 Node,850,NODE 1251,Air,3
 Node,851,NODE 1250,Air,3
 Node,852,NODE 1248,Air,2
 Node,853,NODE 1239,Air,3
 Node,854,NODE 1243,Air,3
 Node,855,NODE 1242,Air,3
 Node,856,NODE 1240,Air,2
 Node,857,NODE 1231,Air,3
 Node,858,NODE 1235,Air,3
 Node,859,NODE 1234,Air,3
 Node,860,NODE 1232,Air,2
 Node,861,NODE 1223,Air,3
 Node,862,NODE 1227,Air,3
 Node,863,NODE 1226,Air,3
 Node,864,NODE 1224,Air,2
 Node,865,NODE 1215,Air,3
 Node,866,NODE 1219,Air,3
 Node,867,NODE 1218,Air,3
 Node,868,NODE 1216,Air,2
 Node,869,NODE 1207,Air,3
 Node,870,NODE 1211,Air,3
 Node,871,NODE 1210,Air,3
 Node,872,NODE 1208,Air,2
 Node,873,NODE 1199,Air,3
 Node,874,NODE 1203,Air,3
 Node,875,NODE 1202,Air,3
 Node,876,NODE 1200,Air,2
 Node,877,NODE 1191,Air,3
 Node,878,NODE 1195,Air,3
 Node,879,NODE 1194,Air,3
 Node,880,NODE 1192,Air,2
 Node,881,NODE 1183,Air,3
 Node,882,NODE 1187,Air,3
 Node,883,NODE 1186,Air,3
 Node,884,NODE 1184,Air,2
 Node,885,NODE 1175,Air,3
 Node,886,NODE 1179,Air,3
 Node,887,NODE 1178,Air,3
 Node,888,NODE 1176,Air,2
 Node,889,NODE 1167,Air,3
 Node,890,NODE 1171,Air,3
 Node,891,NODE 1170,Air,3
 Node,892,NODE 1168,Air,2
 Node,893,NODE 1159,Air,3
 Node,894,NODE 1163,Air,3
 Node,895,NODE 1162,Air,3
 Node,896,NODE 1160,Air,2
 Node,897,NODE 1151,Air,3
 Node,898,NODE 1155,Air,3
 Node,899,NODE 1154,Air,3
 Node,900,NODE 1152,Air,2
 Node,901,NODE 1143,Air,3
 Node,902,NODE 1147,Air,3
 Node,903,NODE 1146,Air,3
 Node,904,NODE 1144,Air,2
 Node,905,NODE 1135,Air,3
 Node,906,NODE 1139,Air,3
 Node,907,NODE 1138,Air,3
 Node,908,NODE 1136,Air,2
 Node,909,NODE 1127,Air,3
 Node,910,NODE 1131,Air,3
 Node,911,NODE 1130,Air,3
 Node,912,NODE 1128,Air,2
 Node,913,NODE 1119,Air,3
 Node,914,NODE 1123,Air,3
 Node,915,NODE 1122,Air,3
 Node,916,NODE 1120,Air,2
 Node,917,NODE 1111,Air,3
 Node,918,NODE 1115,Air,3
 Node,919,NODE 1114,Air,3
 Node,920,NODE 1112,Air,2
 Node,921,NODE 1095,Air,3
 Node,922,NODE 1099,Air,3
 Node,923,NODE 1098,Air,3
 Node,924,NODE 1096,Air,2
 Node,925,NODE 1103,Air,3
 Node,926,NODE 1107,Air,3
 Node,927,NODE 1106,Air,3
 Node,928,NODE 1104,Air,2
 Node,929,NODE 1087,Air,3
 Node,930,NODE 1091,Air,3
 Node,931,NODE 1090,Air,3
 Node,932,NODE 1088,Air,2
 Node,933,NODE 1079,Air,3
 Node,934,NODE 1083,Air,3
 Node,935,NODE 1082,Air,3
 Node,936,NODE 1080,Air,2
 Node,937,NODE 1071,Air,3
 Node,938,NODE 1075,Air,3
 Node,939,NODE 1074,Air,3
 Node,940,NODE 1072,Air,2
 Node,941,NODE 1063,Air,3
 Node,942,NODE 1067,Air,3
 Node,943,NODE 1066,Air,3
 Node,944,NODE 1064,Air,2
 Node,945,NODE 1055,Air,3
 Node,946,NODE 1059,Air,3
 Node,947,NODE 1058,Air,3
 Node,948,NODE 1056,Air,2
 Node,949,NODE 1047,Air,3
 Node,950,NODE 1051,Air,3
 Node,951,NODE 1050,Air,3
 Node,952,NODE 1048,Air,2
 Node,953,NODE 1039,Air,3
 Node,954,NODE 1043,Air,3
 Node,955,NODE 1042,Air,3
 Node,956,NODE 1040,Air,2
 Node,957,NODE 1031,Air,3
 Node,958,NODE 1035,Air,3
 Node,959,NODE 1034,Air,3
 Node,960,NODE 1032,Air,2
 Node,961,NODE 1023,Air,3
 Node,962,NODE 1027,Air,3
 Node,963,NODE 1026,Air,3
 Node,964,NODE 1024,Air,2
 Node,965,NODE 1015,Air,3
 Node,966,NODE 1019,Air,3
 Node,967,NODE 1018,Air,3
 Node,968,NODE 1016,Air,2
 Node,969,NODE 1007,Air,3
 Node,970,NODE 1011,Air,3
 Node,971,NODE 1010,Air,3
 Node,972,NODE 1008,Air,2
 Node,973,NODE 999,Air,3
 Node,974,NODE 1003,Air,3
 Node,975,NODE 1002,Air,3
 Node,976,NODE 1000,Air,2
 Node,977,NODE 991,Air,3
 Node,978,NODE 995,Air,3
 Node,979,NODE 994,Air,3
 Node,980,NODE 992,Air,2
 Node,981,NODE 983,Air,3
 Node,982,NODE 987,Air,3
 Node,983,NODE 986,Air,3
 Node,984,NODE 984,Air,2
 Node,985,NODE 975,Air,3
 Node,986,NODE 979,Air,3
 Node,987,NODE 978,Air,3
 Node,988,NODE 976,Air,2
 Node,989,NODE 967,Air,3
 Node,990,NODE 971,Air,3
 Node,991,NODE 970,Air,3
 Node,992,NODE 968,Air,2
 Node,993,NODE 959,Air,3
 Node,994,NODE 963,Air,3
 Node,995,NODE 962,Air,3
 Node,996,NODE 960,Air,2
 Node,997,NODE 951,Air,3
 Node,998,NODE 955,Air,3
 Node,999,NODE 954,Air,3
 Node,1000,NODE 952,Air,2
 Node,1001,NODE 943,Air,3
 Node,1002,NODE 947,Air,3
 Node,1003,NODE 946,Air,3
 Node,1004,NODE 944,Air,2
 Node,1005,NODE 935,Air,3
 Node,1006,NODE 939,Air,3
 Node,1007,NODE 938,Air,3
 Node,1008,NODE 936,Air,2
 Node,1009,NODE 927,Air,3
 Node,1010,NODE 931,Air,3
 Node,1011,NODE 930,Air,3
 Node,1012,NODE 928,Air,2
 Node,1013,NODE 919,Air,3
 Node,1014,NODE 923,Air,3
 Node,1015,NODE 922,Air,3
 Node,1016,NODE 920,Air,2
 Node,1017,NODE 911,Air,3
 Node,1018,NODE 915,Air,3
 Node,1019,NODE 914,Air,3
 Node,1020,NODE 912,Air,2
 Node,1021,NODE 903,Air,3
 Node,1022,NODE 907,Air,3
 Node,1023,NODE 906,Air,3
 Node,1024,NODE 904,Air,2
 Node,1025,NODE 895,Air,3
 Node,1026,NODE 899,Air,3
 Node,1027,NODE 898,Air,3
 Node,1028,NODE 896,Air,2
 Node,1029,NODE 887,Air,3
 Node,1030,NODE 891,Air,3
 Node,1031,NODE 890,Air,3
 Node,1032,NODE 888,Air,2
 Node,1033,NODE 879,Air,3
 Node,1034,NODE 883,Air,3
 Node,1035,NODE 882,Air,3
 Node,1036,NODE 880,Air,2
 Node,1037,NODE 871,Air,3
 Node,1038,NODE 875,Air,3
 Node,1039,NODE 874,Air,3
 Node,1040,NODE 872,Air,2
 Node,1041,NODE 863,Air,3
 Node,1042,NODE 867,Air,3
 Node,1043,NODE 866,Air,3
 Node,1044,NODE 864,Air,2
 Node,1045,NODE 847,Air,3
 Node,1046,NODE 851,Air,3
 Node,1047,NODE 850,Air,3
 Node,1048,NODE 848,Air,2
 Node,1049,NODE 855,Air,3
 Node,1050,NODE 859,Air,3
 Node,1051,NODE 858,Air,3
 Node,1052,NODE 856,Air,2
 Node,1053,NODE 831,Air,3
 Node,1054,NODE 835,Air,3
 Node,1055,NODE 834,Air,3
 Node,1056,NODE 832,Air,2
 Node,1057,NODE 839,Air,3
 Node,1058,NODE 843,Air,3
 Node,1059,NODE 842,Air,3
 Node,1060,NODE 840,Air,2
 Node,1061,NODE 823,Air,3
 Node,1062,NODE 827,Air,3
 Node,1063,NODE 826,Air,3
 Node,1064,NODE 824,Air,2
 Node,1065,NODE 815,Air,3
 Node,1066,NODE 819,Air,3
 Node,1067,NODE 818,Air,3
 Node,1068,NODE 816,Air,2
 Node,1069,NODE 807,Air,3
 Node,1070,NODE 811,Air,3
 Node,1071,NODE 810,Air,3
 Node,1072,NODE 808,Air,2
 Node,1073,NODE 799,Air,3
 Node,1074,NODE 803,Air,3
 Node,1075,NODE 802,Air,3
 Node,1076,NODE 800,Air,2
 Node,1077,NODE 791,Air,3
 Node,1078,NODE 795,Air,3
 Node,1079,NODE 794,Air,3
 Node,1080,NODE 792,Air,2
 Node,1081,NODE 783,Air,3
 Node,1082,NODE 787,Air,3
 Node,1083,NODE 786,Air,3
 Node,1084,NODE 784,Air,2
 Node,1085,NODE 775,Air,3
 Node,1086,NODE 779,Air,3
 Node,1087,NODE 778,Air,3
 Node,1088,NODE 776,Air,2
 Node,1089,NODE 767,Air,3
 Node,1090,NODE 771,Air,3
 Node,1091,NODE 770,Air,3
 Node,1092,NODE 768,Air,2
 Node,1093,NODE 759,Air,3
 Node,1094,NODE 763,Air,3
 Node,1095,NODE 762,Air,3
 Node,1096,NODE 760,Air,2
 Node,1097,NODE 751,Air,3
 Node,1098,NODE 755,Air,3
 Node,1099,NODE 754,Air,3
 Node,1100,NODE 752,Air,2
 Node,1101,NODE 743,Air,3
 Node,1102,NODE 747,Air,3
 Node,1103,NODE 746,Air,3
 Node,1104,NODE 744,Air,2
 Node,1105,NODE 735,Air,3
 Node,1106,NODE 739,Air,3
 Node,1107,NODE 738,Air,3
 Node,1108,NODE 736,Air,2
 Node,1109,NODE 727,Air,3
 Node,1110,NODE 731,Air,3
 Node,1111,NODE 730,Air,3
 Node,1112,NODE 728,Air,2
 Node,1113,NODE 719,Air,3
 Node,1114,NODE 723,Air,3
 Node,1115,NODE 722,Air,3
 Node,1116,NODE 720,Air,2
 Node,1117,NODE 711,Air,3
 Node,1118,NODE 715,Air,3
 Node,1119,NODE 714,Air,3
 Node,1120,NODE 712,Air,2
 Node,1121,NODE 703,Air,3
 Node,1122,NODE 707,Air,3
 Node,1123,NODE 706,Air,3
 Node,1124,NODE 704,Air,2
 Node,1125,NODE 695,Air,3
 Node,1126,NODE 699,Air,3
 Node,1127,NODE 698,Air,3
 Node,1128,NODE 696,Air,2
 Node,1129,NODE 687,Air,3
 Node,1130,NODE 691,Air,3
 Node,1131,NODE 690,Air,3
 Node,1132,NODE 688,Air,2
 Node,1133,NODE 679,Air,3
 Node,1134,NODE 683,Air,3
 Node,1135,NODE 682,Air,3
 Node,1136,NODE 680,Air,2
 Node,1137,NODE 671,Air,3
 Node,1138,NODE 675,Air,3
 Node,1139,NODE 674,Air,3
 Node,1140,NODE 672,Air,2
 Node,1141,NODE 663,Air,3
 Node,1142,NODE 667,Air,3
 Node,1143,NODE 666,Air,3
 Node,1144,NODE 664,Air,2
 Node,1145,NODE 655,Air,3
 Node,1146,NODE 659,Air,3
 Node,1147,NODE 658,Air,3
 Node,1148,NODE 656,Air,2
 Node,1149,NODE 647,Air,3
 Node,1150,NODE 651,Air,3
 Node,1151,NODE 650,Air,3
 Node,1152,NODE 648,Air,2
 Node,1153,NODE 639,Air,3
 Node,1154,NODE 643,Air,3
 Node,1155,NODE 642,Air,3
 Node,1156,NODE 640,Air,2
 Node,1157,NODE 631,Air,3
 Node,1158,NODE 635,Air,3
 Node,1159,NODE 634,Air,3
 Node,1160,NODE 632,Air,2
 Node,1161,NODE 623,Air,3
 Node,1162,NODE 627,Air,3
 Node,1163,NODE 626,Air,3
 Node,1164,NODE 624,Air,2
 Node,1165,NODE 615,Air,3
 Node,1166,NODE 619,Air,3
 Node,1167,NODE 618,Air,3
 Node,1168,NODE 616,Air,2
 Node,1169,NODE 607,Air,3
 Node,1170,NODE 611,Air,3
 Node,1171,NODE 610,Air,3
 Node,1172,NODE 608,Air,2
 Node,1173,NODE 599,Air,3
 Node,1174,NODE 603,Air,3
 Node,1175,NODE 602,Air,3
 Node,1176,NODE 600,Air,2
 Node,1177,NODE 591,Air,3
 Node,1178,NODE 595,Air,3
 Node,1179,NODE 594,Air,3
 Node,1180,NODE 592,Air,2
 Node,1181,NODE 583,Air,3
 Node,1182,NODE 587,Air,3
 Node,1183,NODE 586,Air,3
 Node,1184,NODE 584,Air,2
 Node,1185,NODE 575,Air,3
 Node,1186,NODE 579,Air,3
 Node,1187,NODE 578,Air,3
 Node,1188,NODE 576,Air,2
 Node,1189,NODE 567,Air,3
 Node,1190,NODE 571,Air,3
 Node,1191,NODE 570,Air,3
 Node,1192,NODE 568,Air,2
 Node,1193,NODE 559,Air,3
 Node,1194,NODE 563,Air,3
 Node,1195,NODE 562,Air,3
 Node,1196,NODE 560,Air,2
 Node,1197,NODE 551,Air,3
 Node,1198,NODE 555,Air,3
 Node,1199,NODE 554,Air,3
 Node,1200,NODE 552,Air,2
 Node,1201,NODE 543,Air,3
 Node,1202,NODE 547,Air,3
 Node,1203,NODE 546,Air,3
 Node,1204,NODE 544,Air,2
 Node,1205,NODE 535,Air,3
 Node,1206,NODE 539,Air,3
 Node,1207,NODE 538,Air,3
 Node,1208,NODE 536,Air,2
 Node,1209,NODE 527,Air,3
 Node,1210,NODE 531,Air,3
 Node,1211,NODE 530,Air,3
 Node,1212,NODE 528,Air,2
 Node,1213,NODE 519,Air,3
 Node,1214,NODE 523,Air,3
 Node,1215,NODE 522,Air,3
 Node,1216,NODE 520,Air,2
 Node,1217,NODE 511,Air,3
 Node,1218,NODE 515,Air,3
 Node,1219,NODE 514,Air,3
 Node,1220,NODE 512,Air,2
 Node,1221,NODE 503,Air,3
 Node,1222,NODE 507,Air,3
 Node,1223,NODE 506,Air,3
 Node,1224,NODE 504,Air,2
 Node,1225,NODE 495,Air,3
 Node,1226,NODE 499,Air,3
 Node,1227,NODE 498,Air,3
 Node,1228,NODE 496,Air,2
 Node,1229,NODE 487,Air,3
 Node,1230,NODE 491,Air,3
 Node,1231,NODE 490,Air,3
 Node,1232,NODE 488,Air,2
 Node,1233,NODE 479,Air,3
 Node,1234,NODE 483,Air,3
 Node,1235,NODE 482,Air,3
 Node,1236,NODE 480,Air,2
 Node,1237,NODE 471,Air,3
 Node,1238,NODE 475,Air,3
 Node,1239,NODE 474,Air,3
 Node,1240,NODE 472,Air,2
 Node,1241,NODE 463,Air,3
 Node,1242,NODE 467,Air,3
 Node,1243,NODE 466,Air,3
 Node,1244,NODE 464,Air,2
 Node,1245,NODE 455,Air,3
 Node,1246,NODE 459,Air,3
 Node,1247,NODE 458,Air,3
 Node,1248,NODE 456,Air,2
 Node,1249,NODE 447,Air,3
 Node,1250,NODE 451,Air,3
 Node,1251,NODE 450,Air,3
 Node,1252,NODE 448,Air,2
 Node,1253,NODE 439,Air,3
 Node,1254,NODE 443,Air,3
 Node,1255,NODE 442,Air,3
 Node,1256,NODE 440,Air,2
 Node,1257,NODE 431,Air,3
 Node,1258,NODE 435,Air,3
 Node,1259,NODE 434,Air,3
 Node,1260,NODE 432,Air,2
 Node,1261,NODE 423,Air,3
 Node,1262,NODE 427,Air,3
 Node,1263,NODE 426,Air,3
 Node,1264,NODE 424,Air,2
 Node,1265,NODE 415,Air,3
 Node,1266,NODE 419,Air,3
 Node,1267,NODE 418,Air,3
 Node,1268,NODE 416,Air,2
 Node,1269,NODE 407,Air,3
 Node,1270,NODE 411,Air,3
 Node,1271,NODE 410,Air,3
 Node,1272,NODE 408,Air,2
 Node,1273,NODE 399,Air,3
 Node,1274,NODE 403,Air,3
 Node,1275,NODE 402,Air,3
 Node,1276,NODE 400,Air,2
 Node,1277,NODE 391,Air,3
 Node,1278,NODE 395,Air,3
 Node,1279,NODE 394,Air,3
 Node,1280,NODE 392,Air,2
 Node,1281,NODE 383,Air,3
 Node,1282,NODE 387,Air,3
 Node,1283,NODE 386,Air,3
 Node,1284,NODE 384,Air,2
 Node,1285,NODE 375,Air,3
 Node,1286,NODE 379,Air,3
 Node,1287,NODE 378,Air,3
 Node,1288,NODE 376,Air,2
 Node,1289,NODE 367,Air,3
 Node,1290,NODE 371,Air,3
 Node,1291,NODE 370,Air,3
 Node,1292,NODE 368,Air,2
 Node,1293,NODE 359,Air,3
 Node,1294,NODE 363,Air,3
 Node,1295,NODE 362,Air,3
 Node,1296,NODE 360,Air,2
 Node,1297,NODE 351,Air,3
 Node,1298,NODE 355,Air,3
 Node,1299,NODE 354,Air,3
 Node,1300,NODE 352,Air,2
 Node,1301,NODE 343,Air,3
 Node,1302,NODE 347,Air,3
 Node,1303,NODE 346,Air,3
 Node,1304,NODE 344,Air,2
 Node,1305,NODE 335,Air,3
 Node,1306,NODE 339,Air,3
 Node,1307,NODE 338,Air,3
 Node,1308,NODE 336,Air,2
 Node,1309,NODE 327,Air,3
 Node,1310,NODE 331,Air,3
 Node,1311,NODE 330,Air,3
 Node,1312,NODE 328,Air,2
 Node,1313,NODE 319,Air,3
 Node,1314,NODE 323,Air,3
 Node,1315,NODE 322,Air,3
 Node,1316,NODE 320,Air,2
 Node,1317,NODE 311,Air,3
 Node,1318,NODE 315,Air,3
 Node,1319,NODE 314,Air,3
 Node,1320,NODE 312,Air,2
 Node,1321,NODE 303,Air,3
 Node,1322,NODE 307,Air,3
 Node,1323,NODE 306,Air,3
 Node,1324,NODE 304,Air,2
 Node,1325,NODE 295,Air,3
 Node,1326,NODE 299,Air,3
 Node,1327,NODE 298,Air,3
 Node,1328,NODE 296,Air,2
 Node,1329,NODE 287,Air,3
 Node,1330,NODE 291,Air,3
 Node,1331,NODE 290,Air,3
 Node,1332,NODE 288,Air,2
 Node,1333,NODE 279,Air,3
 Node,1334,NODE 283,Air,3
 Node,1335,NODE 282,Air,3
 Node,1336,NODE 280,Air,2
 Node,1337,NODE 271,Air,3
 Node,1338,NODE 275,Air,3
 Node,1339,NODE 274,Air,3
 Node,1340,NODE 272,Air,2
 Node,1341,NODE 263,Air,3
 Node,1342,NODE 267,Air,3
 Node,1343,NODE 266,Air,3
 Node,1344,NODE 264,Air,2
 Node,1345,NODE 255,Air,3
 Node,1346,NODE 259,Air,3
 Node,1347,NODE 258,Air,3
 Node,1348,NODE 256,Air,2
 Node,1349,NODE 247,Air,3
 Node,1350,NODE 251,Air,3
 Node,1351,NODE 250,Air,3
 Node,1352,NODE 248,Air,2
 Node,1353,NODE 239,Air,3
 Node,1354,NODE 243,Air,3
 Node,1355,NODE 242,Air,3
 Node,1356,NODE 240,Air,2
 Node,1357,NODE 231,Air,3
 Node,1358,NODE 235,Air,3
 Node,1359,NODE 234,Air,3
 Node,1360,NODE 232,Air,2
 Node,1361,NODE 223,Air,3
 Node,1362,NODE 227,Air,3
 Node,1363,NODE 226,Air,3
 Node,1364,NODE 224,Air,2
 Node,1365,NODE 215,Air,3
 Node,1366,NODE 219,Air,3
 Node,1367,NODE 218,Air,3
 Node,1368,NODE 216,Air,2
 Node,1369,NODE 207,Air,3
 Node,1370,NODE 211,Air,3
 Node,1371,NODE 210,Air,3
 Node,1372,NODE 208,Air,2
 Node,1373,NODE 199,Air,3
 Node,1374,NODE 203,Air,3
 Node,1375,NODE 202,Air,3
 Node,1376,NODE 200,Air,2
 Node,1377,NODE 191,Air,3
 Node,1378,NODE 195,Air,3
 Node,1379,NODE 194,Air,3
 Node,1380,NODE 192,Air,2
 Node,1381,NODE 183,Air,3
 Node,1382,NODE 187,Air,3
 Node,1383,NODE 186,Air,3
 Node,1384,NODE 184,Air,2
 Node,1385,NODE 175,Air,3
 Node,1386,NODE 179,Air,3
 Node,1387,NODE 178,Air,3
 Node,1388,NODE 176,Air,2
 Node,1389,NODE 167,Air,3
 Node,1390,NODE 171,Air,3
 Node,1391,NODE 170,Air,3
 Node,1392,NODE 168,Air,2
 Node,1393,NODE 159,Air,3
 Node,1394,NODE 163,Air,3
 Node,1395,NODE 162,Air,3
 Node,1396,NODE 160,Air,2
 Node,1397,NODE 151,Air,3
 Node,1398,NODE 155,Air,3
 Node,1399,NODE 154,Air,3
 Node,1400,NODE 152,Air,2
 Node,1401,NODE 143,Air,3
 Node,1402,NODE 147,Air,3
 Node,1403,NODE 146,Air,3
 Node,1404,NODE 144,Air,2
 Node,1405,NODE 135,Air,3
 Node,1406,NODE 139,Air,3
 Node,1407,NODE 138,Air,3
 Node,1408,NODE 136,Air,2
 Node,1409,NODE 127,Air,3
 Node,1410,NODE 131,Air,3
 Node,1411,NODE 130,Air,3
 Node,1412,NODE 128,Air,2
 Node,1413,NODE 119,Air,3
 Node,1414,NODE 123,Air,3
 Node,1415,NODE 122,Air,3
 Node,1416,NODE 120,Air,2
 Node,1417,NODE 111,Air,3
 Node,1418,NODE 115,Air,3
 Node,1419,NODE 114,Air,3
 Node,1420,NODE 112,Air,2
 Node,1421,NODE 103,Air,3
 Node,1422,NODE 107,Air,3
 Node,1423,NODE 106,Air,3
 Node,1424,NODE 104,Air,2
 Node,1425,NODE 95,Air,3
 Node,1426,NODE 99,Air,3
 Node,1427,NODE 98,Air,3
 Node,1428,NODE 96,Air,2
 Node,1429,NODE 87,Air,3
 Node,1430,NODE 91,Air,3
 Node,1431,NODE 90,Air,3
 Node,1432,NODE 88,Air,2
 Node,1433,NODE 79,Air,3
 Node,1434,NODE 83,Air,3
 Node,1435,NODE 82,Air,3
 Node,1436,NODE 80,Air,2
 Node,1437,NODE 71,Air,3
 Node,1438,NODE 75,Air,3
 Node,1439,NODE 74,Air,3
 Node,1440,NODE 72,Air,2
 Node,1441,NODE 63,Air,3
 Node,1442,NODE 67,Air,3
 Node,1443,NODE 66,Air,3
 Node,1444,NODE 64,Air,2
 Node,1445,NODE 55,Air,3
 Node,1446,NODE 59,Air,3
 Node,1447,NODE 58,Air,3
 Node,1448,NODE 56,Air,2
 Node,1449,NODE 47,Air,3
 Node,1450,NODE 51,Air,3
 Node,1451,NODE 50,Air,3
 Node,1452,NODE 48,Air,2
 Node,1453,NODE 39,Air,3
 Node,1454,NODE 43,Air,3
 Node,1455,NODE 42,Air,3
 Node,1456,NODE 40,Air,2
 Node,1457,NODE 31,Air,3
 Node,1458,NODE 35,Air,3
 Node,1459,NODE 34,Air,3
 Node,1460,NODE 32,Air,2
 Node,1461,NODE 13,Air,3
 Node,1462,NODE 27,Air,3
 Node,1463,NODE 26,Air,3
 Node,1464,NODE 24,Air,2
 Node,1465,NODE 10,Air,6
 Node,1466,NODE 11,Air,3
 Node,1467,MAIN CHILLER CHW OUTLET,Water,3
 Node,1468,CHILLED WATER LOOP CHW SUPPLY OUTLET,Water,5
 Node,1469,MAIN TOWER CNDW OUTLET,Water,3
 Node,1470,CHILLED WATER LOOP CNDW SUPPLY OUTLET,Water,5
 Node,1471,NODE 9,Air,3
 Node,1472,NODE 17,Air,5
 Node,1473,NODE 18,Air,5
 Node,1474,NODE 19,Air,8
 Node,1475,NODE 20,Air,8
 Node,1476,NODE 4,Water,2
 Node,1477,SYSTEM 1_ HYDRONIC FCU SYSTEM_CHW_\{11234\} DEMAND INLET PIPE NODE,Water,1
 Node,1478,NODE 6,Water,2
 Node,1479,NODE 16,Water,1
 Node,1480,NODE 22,Water,1
 Node,1481,NODE 23,Water,1
 Node,1482,NODE 29,Water,1
 Node,1483,NODE 30,Water,1
 Node,1484,NODE 37,Water,1
 Node,1485,NODE 38,Water,1
 Node,1486,NODE 45,Water,1
 Node,1487,NODE 46,Water,1
 Node,1488,NODE 53,Water,1
 Node,1489,NODE 54,Water,1
 Node,1490,NODE 61,Water,1
 Node,1491,NODE 62,Water,1
 Node,1492,NODE 69,Water,1
 Node,1493,NODE 70,Water,1
 Node,1494,NODE 77,Water,1
 Node,1495,NODE 78,Water,1
 Node,1496,NODE 85,Water,1
 Node,1497,NODE 86,Water,1
 Node,1498,NODE 93,Water,1
 Node,1499,NODE 94,Water,1
 Node,1500,NODE 101,Water,1
 Node,1501,NODE 102,Water,1
 Node,1502,NODE 109,Water,1
 Node,1503,NODE 110,Water,1
 Node,1504,NODE 117,Water,1
 Node,1505,NODE 118,Water,1
 Node,1506,NODE 125,Water,1
 Node,1507,NODE 126,Water,1
 Node,1508,NODE 133,Water,1
 Node,1509,NODE 134,Water,1
 Node,1510,NODE 141,Water,1
 Node,1511,NODE 142,Water,1
 Node,1512,NODE 149,Water,1
 Node,1513,NODE 150,Water,1
 Node,1514,NODE 157,Water,1
 Node,1515,NODE 158,Water,1
 Node,1516,NODE 165,Water,1
 Node,1517,NODE 166,Water,1
 Node,1518,NODE 173,Water,1
 Node,1519,NODE 174,Water,1
 Node,1520,NODE 181,Water,1
 Node,1521,NODE 182,Water,1
 Node,1522,NODE 189,Water,1
 Node,1523,NODE 190,Water,1
 Node,1524,NODE 197,Water,1
 Node,1525,NODE 198,Water,1
 Node,1526,NODE 205,Water,1
 Node,1527,NODE 206,Water,1
 Node,1528,NODE 213,Water,1
 Node,1529,NODE 214,Water,1
 Node,1530,NODE 221,Water,1
 Node,1531,NODE 222,Water,1
 Node,1532,NODE 229,Water,1
 Node,1533,NODE 230,Water,1
 Node,1534,NODE 237,Water,1
 Node,1535,NODE 238,Water,1
 Node,1536,NODE 245,Water,1
 Node,1537,NODE 246,Water,1
 Node,1538,NODE 253,Water,1
 Node,1539,NODE 254,Water,1
 Node,1540,NODE 261,Water,1
 Node,1541,NODE 262,Water,1
 Node,1542,NODE 269,Water,1
 Node,1543,NODE 270,Water,1
 Node,1544,NODE 277,Water,1
 Node,1545,NODE 278,Water,1
 Node,1546,NODE 285,Water,1
 Node,1547,NODE 286,Water,1
 Node,1548,NODE 293,Water,1
 Node,1549,NODE 294,Water,1
 Node,1550,NODE 301,Water,1
 Node,1551,NODE 302,Water,1
 Node,1552,NODE 309,Water,1
 Node,1553,NODE 310,Water,1
 Node,1554,NODE 317,Water,1
 Node,1555,NODE 318,Water,1
 Node,1556,NODE 325,Water,1
 Node,1557,NODE 326,Water,1
 Node,1558,NODE 333,Water,1
 Node,1559,NODE 334,Water,1
 Node,1560,NODE 341,Water,1
 Node,1561,NODE 342,Water,1
 Node,1562,NODE 349,Water,1
 Node,1563,NODE 350,Water,1
 Node,1564,NODE 357,Water,1
 Node,1565,NODE 358,Water,1
 Node,1566,NODE 365,Water,1
 Node,1567,NODE 366,Water,1
 Node,1568,NODE 373,Water,1
 Node,1569,NODE 374,Water,1
 Node,1570,NODE 381,Water,1
 Node,1571,NODE 382,Water,1
 Node,1572,NODE 389,Water,1
 Node,1573,NODE 390,Water,1
 Node,1574,NODE 397,Water,1
 Node,1575,NODE 398,Water,1
 Node,1576,NODE 405,Water,1
 Node,1577,NODE 406,Water,1
 Node,1578,NODE 413,Water,1
 Node,1579,NODE 414,Water,1
 Node,1580,NODE 421,Water,1
 Node,1581,NODE 422,Water,1
 Node,1582,NODE 429,Water,1
 Node,1583,NODE 430,Water,1
 Node,1584,NODE 437,Water,1
 Node,1585,NODE 438,Water,1
 Node,1586,NODE 445,Water,1
 Node,1587,NODE 446,Water,1
 Node,1588,NODE 453,Water,1
 Node,1589,NODE 454,Water,1
 Node,1590,NODE 461,Water,1
 Node,1591,NODE 462,Water,1
 Node,1592,NODE 469,Water,1
 Node,1593,NODE 470,Water,1
 Node,1594,NODE 477,Water,1
 Node,1595,NODE 478,Water,1
 Node,1596,NODE 485,Water,1
 Node,1597,NODE 486,Water,1
 Node,1598,NODE 493,Water,1
 Node,1599,NODE 494,Water,1
 Node,1600,NODE 501,Water,1
 Node,1601,NODE 502,Water,1
 Node,1602,NODE 509,Water,1
 Node,1603,NODE 510,Water,1
 Node,1604,NODE 517,Water,1
 Node,1605,NODE 518,Water,1
 Node,1606,NODE 525,Water,1
 Node,1607,NODE 526,Water,1
 Node,1608,NODE 533,Water,1
 Node,1609,NODE 534,Water,1
 Node,1610,NODE 541,Water,1
 Node,1611,NODE 542,Water,1
 Node,1612,NODE 549,Water,1
 Node,1613,NODE 550,Water,1
 Node,1614,NODE 557,Water,1
 Node,1615,NODE 558,Water,1
 Node,1616,NODE 565,Water,1
 Node,1617,NODE 566,Water,1
 Node,1618,NODE 573,Water,1
 Node,1619,NODE 574,Water,1
 Node,1620,NODE 581,Water,1
 Node,1621,NODE 582,Water,1
 Node,1622,NODE 589,Water,1
 Node,1623,NODE 590,Water,1
 Node,1624,NODE 597,Water,1
 Node,1625,NODE 598,Water,1
 Node,1626,NODE 605,Water,1
 Node,1627,NODE 606,Water,1
 Node,1628,NODE 613,Water,1
 Node,1629,NODE 614,Water,1
 Node,1630,NODE 621,Water,1
 Node,1631,NODE 622,Water,1
 Node,1632,NODE 629,Water,1
 Node,1633,NODE 630,Water,1
 Node,1634,NODE 637,Water,1
 Node,1635,NODE 638,Water,1
 Node,1636,NODE 645,Water,1
 Node,1637,NODE 646,Water,1
 Node,1638,NODE 653,Water,1
 Node,1639,NODE 654,Water,1
 Node,1640,NODE 661,Water,1
 Node,1641,NODE 662,Water,1
 Node,1642,NODE 669,Water,1
 Node,1643,NODE 670,Water,1
 Node,1644,NODE 677,Water,1
 Node,1645,NODE 678,Water,1
 Node,1646,NODE 685,Water,1
 Node,1647,NODE 686,Water,1
 Node,1648,NODE 693,Water,1
 Node,1649,NODE 694,Water,1
 Node,1650,NODE 701,Water,1
 Node,1651,NODE 702,Water,1
 Node,1652,NODE 709,Water,1
 Node,1653,NODE 710,Water,1
 Node,1654,NODE 717,Water,1
 Node,1655,NODE 718,Water,1
 Node,1656,NODE 725,Water,1
 Node,1657,NODE 726,Water,1
 Node,1658,NODE 733,Water,1
 Node,1659,NODE 734,Water,1
 Node,1660,NODE 741,Water,1
 Node,1661,NODE 742,Water,1
 Node,1662,NODE 749,Water,1
 Node,1663,NODE 750,Water,1
 Node,1664,NODE 757,Water,1
 Node,1665,NODE 758,Water,1
 Node,1666,NODE 765,Water,1
 Node,1667,NODE 766,Water,1
 Node,1668,NODE 773,Water,1
 Node,1669,NODE 774,Water,1
 Node,1670,NODE 781,Water,1
 Node,1671,NODE 782,Water,1
 Node,1672,NODE 789,Water,1
 Node,1673,NODE 790,Water,1
 Node,1674,NODE 797,Water,1
 Node,1675,NODE 798,Water,1
 Node,1676,NODE 805,Water,1
 Node,1677,NODE 806,Water,1
 Node,1678,NODE 813,Water,1
 Node,1679,NODE 814,Water,1
 Node,1680,NODE 821,Water,1
 Node,1681,NODE 822,Water,1
 Node,1682,NODE 829,Water,1
 Node,1683,NODE 830,Water,1
 Node,1684,NODE 837,Water,1
 Node,1685,NODE 838,Water,1
 Node,1686,NODE 845,Water,1
 Node,1687,NODE 846,Water,1
 Node,1688,NODE 853,Water,1
 Node,1689,NODE 854,Water,1
 Node,1690,NODE 861,Water,1
 Node,1691,NODE 862,Water,1
 Node,1692,NODE 869,Water,1
 Node,1693,NODE 870,Water,1
 Node,1694,NODE 877,Water,1
 Node,1695,NODE 878,Water,1
 Node,1696,NODE 885,Water,1
 Node,1697,NODE 886,Water,1
 Node,1698,NODE 893,Water,1
 Node,1699,NODE 894,Water,1
 Node,1700,NODE 901,Water,1
 Node,1701,NODE 902,Water,1
 Node,1702,NODE 909,Water,1
 Node,1703,NODE 910,Water,1
 Node,1704,NODE 917,Water,1
 Node,1705,NODE 918,Water,1
 Node,1706,NODE 925,Water,1
 Node,1707,NODE 926,Water,1
 Node,1708,NODE 933,Water,1
 Node,1709,NODE 934,Water,1
 Node,1710,NODE 941,Water,1
 Node,1711,NODE 942,Water,1
 Node,1712,NODE 949,Water,1
 Node,1713,NODE 950,Water,1
 Node,1714,NODE 957,Water,1
 Node,1715,NODE 958,Water,1
 Node,1716,NODE 965,Water,1
 Node,1717,NODE 966,Water,1
 Node,1718,NODE 973,Water,1
 Node,1719,NODE 974,Water,1
 Node,1720,NODE 981,Water,1
 Node,1721,NODE 982,Water,1
 Node,1722,NODE 989,Water,1
 Node,1723,NODE 990,Water,1
 Node,1724,NODE 997,Water,1
 Node,1725,NODE 998,Water,1
 Node,1726,NODE 1005,Water,1
 Node,1727,NODE 1006,Water,1
 Node,1728,NODE 1013,Water,1
 Node,1729,NODE 1014,Water,1
 Node,1730,NODE 1021,Water,1
 Node,1731,NODE 1022,Water,1
 Node,1732,NODE 1029,Water,1
 Node,1733,NODE 1030,Water,1
 Node,1734,NODE 1037,Water,1
 Node,1735,NODE 1038,Water,1
 Node,1736,NODE 1045,Water,1
 Node,1737,NODE 1046,Water,1
 Node,1738,NODE 1053,Water,1
 Node,1739,NODE 1054,Water,1
 Node,1740,NODE 1061,Water,1
 Node,1741,NODE 1062,Water,1
 Node,1742,NODE 1069,Water,1
 Node,1743,NODE 1070,Water,1
 Node,1744,NODE 1077,Water,1
 Node,1745,NODE 1078,Water,1
 Node,1746,NODE 1085,Water,1
 Node,1747,NODE 1086,Water,1
 Node,1748,NODE 1093,Water,1
 Node,1749,NODE 1094,Water,1
 Node,1750,NODE 1101,Water,1
 Node,1751,NODE 1102,Water,1
 Node,1752,NODE 1109,Water,1
 Node,1753,NODE 1110,Water,1
 Node,1754,NODE 1117,Water,1
 Node,1755,NODE 1118,Water,1
 Node,1756,NODE 1125,Water,1
 Node,1757,NODE 1126,Water,1
 Node,1758,NODE 1133,Water,1
 Node,1759,NODE 1134,Water,1
 Node,1760,NODE 1141,Water,1
 Node,1761,NODE 1142,Water,1
 Node,1762,NODE 1149,Water,1
 Node,1763,NODE 1150,Water,1
 Node,1764,NODE 1157,Water,1
 Node,1765,NODE 1158,Water,1
 Node,1766,NODE 1165,Water,1
 Node,1767,NODE 1166,Water,1
 Node,1768,NODE 1173,Water,1
 Node,1769,NODE 1174,Water,1
 Node,1770,NODE 1181,Water,1
 Node,1771,NODE 1182,Water,1
 Node,1772,NODE 1189,Water,1
 Node,1773,NODE 1190,Water,1
 Node,1774,NODE 1197,Water,1
 Node,1775,NODE 1198,Water,1
 Node,1776,NODE 1205,Water,1
 Node,1777,NODE 1206,Water,1
 Node,1778,NODE 1213,Water,1
 Node,1779,NODE 1214,Water,1
 Node,1780,NODE 1221,Water,1
 Node,1781,NODE 1222,Water,1
 Node,1782,NODE 1229,Water,1
 Node,1783,NODE 1230,Water,1
 Node,1784,NODE 1237,Water,1
 Node,1785,NODE 1238,Water,1
 Node,1786,NODE 1245,Water,1
 Node,1787,NODE 1246,Water,1
 Node,1788,NODE 1253,Water,1
 Node,1789,NODE 1254,Water,1
 Node,1790,NODE 1261,Water,1
 Node,1791,NODE 1262,Water,1
 Node,1792,NODE 1269,Water,1
 Node,1793,NODE 1270,Water,1
 Node,1794,NODE 1277,Water,1
 Node,1795,NODE 1278,Water,1
 Node,1796,NODE 1285,Water,1
 Node,1797,NODE 1286,Water,1
 Node,1798,NODE 1293,Water,1
 Node,1799,NODE 1294,Water,1
 Node,1800,NODE 1301,Water,1
 Node,1801,NODE 1302,Water,1
 Node,1802,NODE 1309,Water,1
 Node,1803,NODE 1310,Water,1
 Node,1804,NODE 1317,Water,1
 Node,1805,NODE 1318,Water,1
 Node,1806,NODE 1325,Water,1
 Node,1807,NODE 1326,Water,1
 Node,1808,NODE 1333,Water,1
 Node,1809,NODE 1334,Water,1
 Node,1810,NODE 1341,Water,1
 Node,1811,NODE 1342,Water,1
 Node,1812,NODE 1349,Water,1
 Node,1813,NODE 1350,Water,1
 Node,1814,NODE 1357,Water,1
 Node,1815,NODE 1358,Water,1
 Node,1816,NODE 1365,Water,1
 Node,1817,NODE 1366,Water,1
 Node,1818,NODE 1373,Water,1
 Node,1819,NODE 1374,Water,1
 Node,1820,NODE 1381,Water,1
 Node,1821,NODE 1382,Water,1
 Node,1822,NODE 1389,Water,1
 Node,1823,NODE 1390,Water,1
 Node,1824,NODE 1397,Water,1
 Node,1825,NODE 1398,Water,1
 Node,1826,NODE 1405,Water,1
 Node,1827,NODE 1406,Water,1
 Node,1828,NODE 1413,Water,1
 Node,1829,NODE 1414,Water,1
 Node,1830,NODE 1421,Water,1
 Node,1831,NODE 1422,Water,1
 Node,1832,NODE 1429,Water,1
 Node,1833,NODE 1430,Water,1
 Node,1834,NODE 1437,Water,1
 Node,1835,NODE 1438,Water,1
 Node,1836,NODE 1445,Water,1
 Node,1837,NODE 1446,Water,1
 Node,1838,NODE 1453,Water,1
 Node,1839,NODE 1454,Water,1
 Node,1840,NODE 1461,Water,1
 Node,1841,NODE 1462,Water,1
 Node,1842,NODE 1469,Water,1
 Node,1843,NODE 1470,Water,1
 Node,1844,NODE 1477,Water,1
 Node,1845,NODE 1478,Water,1
 Node,1846,NODE 1485,Water,1
 Node,1847,NODE 1486,Water,1
 Node,1848,NODE 1493,Water,1
 Node,1849,NODE 1494,Water,1
 Node,1850,NODE 1501,Water,1
 Node,1851,NODE 1502,Water,1
 Node,1852,NODE 1509,Water,1
 Node,1853,NODE 1510,Water,1
 Node,1854,NODE 1517,Water,1
 Node,1855,NODE 1518,Water,1
 Node,1856,NODE 1525,Water,1
 Node,1857,NODE 1526,Water,1
 Node,1858,NODE 1533,Water,1
 Node,1859,NODE 1534,Water,1
 Node,1860,NODE 1541,Water,1
 Node,1861,NODE 1542,Water,1
 Node,1862,NODE 1549,Water,1
 Node,1863,NODE 1550,Water,1
 Node,1864,NODE 1557,Water,1
 Node,1865,NODE 1558,Water,1
 Node,1866,NODE 1565,Water,1
 Node,1867,NODE 1566,Water,1
 Node,1868,NODE 1573,Water,1
 Node,1869,NODE 1574,Water,1
 Node,1870,NODE 1581,Water,1
 Node,1871,NODE 1582,Water,1
 Node,1872,NODE 1589,Water,1
 Node,1873,NODE 1590,Water,1
 Node,1874,NODE 1597,Water,1
 Node,1875,NODE 1598,Water,1
 Node,1876,NODE 1605,Water,1
 Node,1877,NODE 1606,Water,1
 Node,1878,NODE 1613,Water,1
 Node,1879,NODE 1614,Water,1
 Node,1880,NODE 1621,Water,1
 Node,1881,NODE 1622,Water,1
 Node,1882,NODE 1629,Water,1
 Node,1883,NODE 1630,Water,1
 Node,1884,NODE 1637,Water,1
 Node,1885,NODE 1638,Water,1
 Node,1886,NODE 1645,Water,1
 Node,1887,NODE 1646,Water,1
 Node,1888,NODE 1653,Water,1
 Node,1889,NODE 1654,Water,1
 Node,1890,NODE 1661,Water,1
 Node,1891,NODE 1662,Water,1
 Node,1892,NODE 1669,Water,1
 Node,1893,NODE 1670,Water,1
 Node,1894,NODE 1677,Water,1
 Node,1895,NODE 1678,Water,1
 Node,1896,NODE 1685,Water,1
 Node,1897,NODE 1686,Water,1
 Node,1898,NODE 1693,Water,1
 Node,1899,NODE 1694,Water,1
 Node,1900,NODE 1701,Water,1
 Node,1901,NODE 1702,Water,1
 Node,1902,NODE 1709,Water,1
 Node,1903,NODE 1710,Water,1
 Node,1904,NODE 1717,Water,1
 Node,1905,NODE 1718,Water,1
 Node,1906,NODE 1725,Water,1
 Node,1907,NODE 1726,Water,1
 Node,1908,NODE 1733,Water,1
 Node,1909,NODE 1734,Water,1
 Node,1910,NODE 1741,Water,1
 Node,1911,NODE 1742,Water,1
 Node,1912,NODE 1749,Water,1
 Node,1913,NODE 1750,Water,1
 Node,1914,NODE 1757,Water,1
 Node,1915,NODE 1758,Water,1
 Node,1916,NODE 1765,Water,1
 Node,1917,NODE 1766,Water,1
 Node,1918,NODE 1773,Water,1
 Node,1919,NODE 1774,Water,1
 Node,1920,NODE 1781,Water,1
 Node,1921,NODE 1782,Water,1
 Node,1922,NODE 1789,Water,1
 Node,1923,NODE 1790,Water,1
 Node,1924,NODE 1797,Water,1
 Node,1925,NODE 1798,Water,1
 Node,1926,NODE 1805,Water,1
 Node,1927,NODE 1806,Water,1
 Node,1928,NODE 1813,Water,1
 Node,1929,NODE 1814,Water,1
 Node,1930,NODE 1821,Water,1
 Node,1931,NODE 1822,Water,1
 Node,1932,NODE 1829,Water,1
 Node,1933,NODE 1830,Water,1
 Node,1934,NODE 1837,Water,1
 Node,1935,NODE 1838,Water,1
 Node,1936,NODE 1845,Water,1
 Node,1937,NODE 1846,Water,1
 Node,1938,NODE 1853,Water,1
 Node,1939,NODE 1854,Water,1
 Node,1940,NODE 1861,Water,1
 Node,1941,NODE 1862,Water,1
 Node,1942,NODE 1869,Water,1
 Node,1943,NODE 1870,Water,1
 Node,1944,NODE 1877,Water,1
 Node,1945,NODE 1878,Water,1
 Node,1946,NODE 1885,Water,1
 Node,1947,NODE 1886,Water,1
 Node,1948,NODE 1893,Water,1
 Node,1949,NODE 1894,Water,1
 Node,1950,NODE 1901,Water,1
 Node,1951,NODE 1902,Water,1
 Node,1952,NODE 1909,Water,1
 Node,1953,NODE 1910,Water,1
 Node,1954,NODE 1917,Water,1
 Node,1955,NODE 1918,Water,1
 Node,1956,NODE 1925,Water,1
 Node,1957,NODE 1926,Water,1
 Node,1958,NODE 1933,Water,1
 Node,1959,NODE 1934,Water,1
 Node,1960,NODE 1941,Water,1
 Node,1961,NODE 1942,Water,1
 Node,1962,NODE 1949,Water,1
 Node,1963,NODE 1950,Water,1
 Node,1964,NODE 1957,Water,1
 Node,1965,NODE 1958,Water,1
 Node,1966,NODE 1965,Water,1
 Node,1967,NODE 1966,Water,1
 Node,1968,NODE 1973,Water,1
 Node,1969,NODE 1974,Water,1
 Node,1970,NODE 1981,Water,1
 Node,1971,NODE 1982,Water,1
 Node,1972,NODE 1989,Water,1
 Node,1973,NODE 1990,Water,1
 Node,1974,NODE 1997,Water,1
 Node,1975,NODE 1998,Water,1
 Node,1976,NODE 2005,Water,1
 Node,1977,NODE 2006,Water,1
 Node,1978,NODE 2013,Water,1
 Node,1979,NODE 2014,Water,1
 Node,1980,NODE 2021,Water,1
 Node,1981,NODE 2022,Water,1
 Node,1982,NODE 2029,Water,1
 Node,1983,NODE 2030,Water,1
 Node,1984,NODE 2037,Water,1
 Node,1985,NODE 2038,Water,1
 Node,1986,NODE 2045,Water,1
 Node,1987,NODE 2046,Water,1
 Node,1988,NODE 2053,Water,1
 Node,1989,NODE 2054,Water,1
 Node,1990,NODE 2061,Water,1
 Node,1991,NODE 2062,Water,1
 Node,1992,NODE 2069,Water,1
 Node,1993,NODE 2070,Water,1
 Node,1994,NODE 2077,Water,1
 Node,1995,NODE 2078,Water,1
 Node,1996,NODE 2085,Water,1
 Node,1997,NODE 2086,Water,1
 Node,1998,NODE 2093,Water,1
 Node,1999,NODE 2094,Water,1
 Node,2000,NODE 2101,Water,1
 Node,2001,NODE 2102,Water,1
 Node,2002,NODE 2109,Water,1
 Node,2003,NODE 2110,Water,1
 Node,2004,NODE 2117,Water,1
 Node,2005,NODE 2118,Water,1
 Node,2006,NODE 2125,Water,1
 Node,2007,NODE 2126,Water,1
 Node,2008,NODE 2133,Water,1
 Node,2009,NODE 2134,Water,1
 Node,2010,NODE 2141,Water,1
 Node,2011,NODE 2142,Water,1
 Node,2012,NODE 2149,Water,1
 Node,2013,NODE 2150,Water,1
 Node,2014,NODE 2157,Water,1
 Node,2015,NODE 2158,Water,1
 Node,2016,NODE 2165,Water,1
 Node,2017,NODE 2166,Water,1
 Node,2018,NODE 2173,Water,1
 Node,2019,NODE 2174,Water,1
 Node,2020,NODE 2181,Water,1
 Node,2021,NODE 2182,Water,1
 Node,2022,NODE 2189,Water,1
 Node,2023,NODE 2190,Water,1
 Node,2024,NODE 2197,Water,1
 Node,2025,NODE 2198,Water,1
 Node,2026,NODE 2205,Water,1
 Node,2027,NODE 2206,Water,1
 Node,2028,NODE 2213,Water,1
 Node,2029,NODE 2214,Water,1
 Node,2030,NODE 2221,Water,1
 Node,2031,NODE 2222,Water,1
 Node,2032,NODE 2229,Water,1
 Node,2033,NODE 2230,Water,1
 Node,2034,NODE 2237,Water,1
 Node,2035,NODE 2238,Water,1
 Node,2036,NODE 2245,Water,1
 Node,2037,NODE 2246,Water,1
 Node,2038,NODE 2253,Water,1
 Node,2039,NODE 2254,Water,1
 Node,2040,NODE 2261,Water,1
 Node,2041,NODE 2262,Water,1
 Node,2042,NODE 2269,Water,1
 Node,2043,NODE 2270,Water,1
 Node,2044,NODE 2277,Water,1
 Node,2045,NODE 2278,Water,1
 Node,2046,NODE 2285,Water,1
 Node,2047,NODE 2286,Water,1
 Node,2048,NODE 2293,Water,1
 Node,2049,NODE 2294,Water,1
 Node,2050,NODE 2301,Water,1
 Node,2051,NODE 2302,Water,1
 Node,2052,NODE 2309,Water,1
 Node,2053,NODE 2310,Water,1
 Node,2054,NODE 2317,Water,1
 Node,2055,NODE 2318,Water,1
 Node,2056,NODE 2325,Water,1
 Node,2057,NODE 2326,Water,1
 Node,2058,NODE 2333,Water,1
 Node,2059,NODE 2334,Water,1
 Node,2060,NODE 2341,Water,1
 Node,2061,NODE 2342,Water,1
 Node,2062,NODE 2349,Water,1
 Node,2063,NODE 2350,Water,1
 Node,2064,NODE 2357,Water,1
 Node,2065,NODE 2358,Water,1
 Node,2066,NODE 2365,Water,1
 Node,2067,NODE 2366,Water,1
 Node,2068,NODE 2373,Water,1
 Node,2069,NODE 2374,Water,1
 Node,2070,NODE 2381,Water,1
 Node,2071,NODE 2382,Water,1
 Node,2072,NODE 2389,Water,1
 Node,2073,NODE 2390,Water,1
 Node,2074,NODE 2397,Water,1
 Node,2075,NODE 2398,Water,1
 Node,2076,NODE 2405,Water,1
 Node,2077,NODE 2406,Water,1
 Node,2078,NODE 2413,Water,1
 Node,2079,NODE 2414,Water,1
 Node,2080,NODE 2421,Water,1
 Node,2081,NODE 2422,Water,1
 Node,2082,NODE 2429,Water,1
 Node,2083,NODE 2430,Water,1
 Node,2084,NODE 2437,Water,1
 Node,2085,NODE 2438,Water,1
 Node,2086,NODE 2445,Water,1
 Node,2087,NODE 2446,Water,1
 Node,2088,NODE 2453,Water,1
 Node,2089,NODE 2454,Water,1
 Node,2090,NODE 2461,Water,1
 Node,2091,NODE 2462,Water,1
 Node,2092,NODE 2469,Water,1
 Node,2093,NODE 2470,Water,1
 Node,2094,NODE 2477,Water,1
 Node,2095,NODE 2478,Water,1
 Node,2096,NODE 2485,Water,1
 Node,2097,NODE 2486,Water,1
 Node,2098,NODE 2493,Water,1
 Node,2099,NODE 2494,Water,1
 Node,2100,NODE 2501,Water,1
 Node,2101,NODE 2502,Water,1
 Node,2102,NODE 2509,Water,1
 Node,2103,NODE 2510,Water,1
 Node,2104,NODE 2517,Water,1
 Node,2105,NODE 2518,Water,1
 Node,2106,NODE 2525,Water,1
 Node,2107,NODE 2526,Water,1
 Node,2108,NODE 2533,Water,1
 Node,2109,NODE 2534,Water,1
 Node,2110,NODE 2541,Water,1
 Node,2111,NODE 2542,Water,1
 Node,2112,NODE 2549,Water,1
 Node,2113,NODE 2550,Water,1
 Node,2114,NODE 2557,Water,1
 Node,2115,NODE 2558,Water,1
 Node,2116,NODE 2565,Water,1
 Node,2117,NODE 2566,Water,1
 Node,2118,NODE 2573,Water,1
 Node,2119,NODE 2574,Water,1
 Node,2120,NODE 2581,Water,1
 Node,2121,NODE 2582,Water,1
 Node,2122,NODE 2589,Water,1
 Node,2123,NODE 2590,Water,1
 Node,2124,NODE 2597,Water,1
 Node,2125,NODE 2598,Water,1
 Node,2126,NODE 2605,Water,1
 Node,2127,NODE 2606,Water,1
 Node,2128,NODE 2613,Water,1
 Node,2129,NODE 2614,Water,1
 Node,2130,NODE 2621,Water,1
 Node,2131,NODE 2622,Water,1
 Node,2132,NODE 2629,Water,1
 Node,2133,NODE 2630,Water,1
 Node,2134,NODE 2637,Water,1
 Node,2135,NODE 2638,Water,1
 Node,2136,NODE 2645,Water,1
 Node,2137,NODE 2646,Water,1
 Node,2138,NODE 2653,Water,1
 Node,2139,NODE 2654,Water,1
 Node,2140,NODE 2663,Water,1
 Node,2141,NODE 2664,Water,1
 Node,2142,NODE 2671,Water,1
 Node,2143,NODE 2672,Water,1
 Node,2144,NODE 2679,Water,1
 Node,2145,NODE 2680,Water,1
 Node,2146,NODE 2687,Water,1
 Node,2147,NODE 2688,Water,1
 Node,2148,NODE 2695,Water,1
 Node,2149,NODE 2696,Water,1
 Node,2150,NODE 2705,Water,1
 Node,2151,NODE 2706,Water,1
 Node,2152,NODE 2713,Water,1
 Node,2153,NODE 2714,Water,1
 Node,2154,NODE 2721,Water,1
 Node,2155,NODE 2722,Water,1
 Node,2156,NODE 2729,Water,1
 Node,2157,NODE 2730,Water,1
 Node,2158,NODE 2737,Water,1
 Node,2159,NODE 2738,Water,1
 Node,2160,NODE 2745,Water,1
 Node,2161,NODE 2746,Water,1
 Node,2162,NODE 2753,Water,1
 Node,2163,NODE 2754,Water,1
 Node,2164,NODE 2761,Water,1
 Node,2165,NODE 2762,Water,1
 Node,2166,NODE 2769,Water,1
 Node,2167,NODE 2770,Water,1
 Node,2168,NODE 2777,Water,1
 Node,2169,NODE 2778,Water,1
 Node,2170,NODE 2785,Water,1
 Node,2171,NODE 2786,Water,1
 Node,2172,NODE 2793,Water,1
 Node,2173,NODE 2794,Water,1
 Node,2174,NODE 2803,Water,1
 Node,2175,NODE 2804,Water,1
 Node,2176,NODE 2811,Water,1
 Node,2177,NODE 2812,Water,1
 Node,2178,NODE 2821,Water,1
 Node,2179,NODE 2822,Water,1
 Node,2180,NODE 2829,Water,1
 Node,2181,NODE 2830,Water,1
 Node,2182,NODE 2837,Water,1
 Node,2183,NODE 2838,Water,1
 Node,2184,NODE 2845,Water,1
 Node,2185,NODE 2846,Water,1
 Node,2186,NODE 2853,Water,1
 Node,2187,NODE 2854,Water,1
 Node,2188,NODE 2861,Water,1
 Node,2189,NODE 2862,Water,1
 Node,2190,NODE 2869,Water,1
 Node,2191,NODE 2870,Water,1
 Node,2192,NODE 2877,Water,1
 Node,2193,NODE 2878,Water,1
 Node,2194,NODE 2885,Water,1
 Node,2195,NODE 2886,Water,1
 Node,2196,NODE 2893,Water,1
 Node,2197,NODE 2894,Water,1
 Node,2198,NODE 2901,Water,1
 Node,2199,NODE 2902,Water,1
 Node,2200,NODE 2909,Water,1
 Node,2201,NODE 2910,Water,1
 Node,2202,NODE 2917,Water,1
 Node,2203,NODE 2918,Water,1
 Node,2204,NODE 2925,Water,1
 Node,2205,NODE 2926,Water,1
 Node,2206,NODE 2933,Water,1
 Node,2207,NODE 2934,Water,1
 Node,2208,NODE 2941,Water,1
 Node,2209,NODE 2942,Water,1
 Node,2210,SYSTEM 1_ HYDRONIC FCU SYSTEM_CHW_\{11234\} DEMAND BYPASS PIPE INLET NODE,Water,1
 Node,2211,SYSTEM 1_ HYDRONIC FCU SYSTEM_CHW_\{11234\} DEMAND BYPASS PIPE OUTLET NODE,Water,1
 Node,2212,SYSTEM 1_ HYDRONIC FCU SYSTEM_CHW_\{11234\} DEMAND OUTLET PIPE NODE,Water,1
 Node,2213,NODE 5,Water,2
 Node,2214,CHILLED WATER LOOP CHW SUPPLY INLET,Water,2
 Node,2215,CHILLED WATER LOOP CHW PUMP OUTLET,Water,1
 Node,2216,CHILLED WATER LOOP CHW SUPPLY OUTLET PIPE INLET,Water,1
 Node,2217,CHILLED WATER LOOP CNDW SUPPLY INLET,Water,2
 Node,2218,CHILLED WATER LOOP CNDW PUMP OUTLET,Water,1
 Node,2219,CHILLED WATER LOOP CNDW SUPPLY OUTLET PIPE INLET,Water,1
 Node,2220,CHILLED WATER LOOP CNDW SUPPLY BYPASS INLET,Water,1
 Node,2221,CHILLED WATER LOOP CNDW SUPPLY BYPASS OUTLET,Water,1
 Node,2222,CHILLED WATER LOOP CNDW DEMAND INLET,Water,2
 Node,2223,CHILLED WATER LOOP CNDW DEMAND INLET PIPE OUTLET,Water,1
 Node,2224,CHILLED WATER LOOP CNDW DEMAND BYPASS INLET,Water,1
 Node,2225,CHILLED WATER LOOP CNDW DEMAND BYPASS OUTLET,Water,1
 Node,2226,CHILLED WATER LOOP CNDW DEMAND OUTLET PIPE INLET,Water,1
 Node,2227,CHILLED WATER LOOP CNDW DEMAND OUTLET,Water,2
 Node,2228,TOWER2 CNDW INLET,Water,1
 Node,2229,TOWER2 CNDW OUTLET,Water,1
 Node,2230,MAIN TOWER CNDW INLET,Water,1
 Node,2231,MAIN CHILLER CND INLET,Water,2
 Node,2232,CHILLER2 CND INLET,Water,3
 Node,2233,MAIN CHILLER CND OUTLET,Water,1
 Node,2234,MAIN CHILLER CHW INLET,Water,1
 Node,2235,CHILLER2 CHW INLET,Water,4
 Node,2236,NODE 2940,Air,0
 Node,2237,NODE 2932,Air,0
 Node,2238,NODE 2924,Air,0
 Node,2239,NODE 2916,Air,0
 Node,2240,NODE 2908,Air,0
 Node,2241,NODE 2900,Air,0
 Node,2242,NODE 2892,Air,0
 Node,2243,NODE 2884,Air,0
 Node,2244,NODE 2876,Air,0
 Node,2245,NODE 2868,Air,0
 Node,2246,NODE 2860,Air,0
 Node,2247,NODE 2852,Air,0
 Node,2248,NODE 2844,Air,0
 Node,2249,NODE 2836,Air,0
 Node,2250,NODE 2828,Air,0
 Node,2251,NODE 2818,Air,0
 Node,2252,NODE 2810,Air,0
 Node,2253,NODE 2800,Air,0
 Node,2254,NODE 2792,Air,0
 Node,2255,NODE 2784,Air,0
 Node,2256,NODE 2776,Air,0
 Node,2257,NODE 2768,Air,0
 Node,2258,NODE 2760,Air,0
 Node,2259,NODE 2752,Air,0
 Node,2260,NODE 2744,Air,0
 Node,2261,NODE 2736,Air,0
 Node,2262,NODE 2728,Air,0
 Node,2263,NODE 2720,Air,0
 Node,2264,NODE 2660,Air,0
 Node,2265,NODE 2702,Air,0
 Node,2266,NODE 2694,Air,0
 Node,2267,NODE 2686,Air,0
 Node,2268,NODE 2678,Air,0
 Node,2269,NODE 2670,Air,0
 Node,2270,NODE 2652,Air,0
 Node,2271,NODE 2644,Air,0
 Node,2272,NODE 2636,Air,0
 Node,2273,NODE 2628,Air,0
 Node,2274,NODE 2620,Air,0
 Node,2275,NODE 2612,Air,0
 Node,2276,NODE 2604,Air,0
 Node,2277,NODE 2596,Air,0
 Node,2278,NODE 2712,Air,0
 Node,2279,NODE 2588,Air,0
 Node,2280,NODE 2580,Air,0
 Node,2281,NODE 2572,Air,0
 Node,2282,NODE 2564,Air,0
 Node,2283,NODE 2556,Air,0
 Node,2284,NODE 2548,Air,0
 Node,2285,NODE 2540,Air,0
 Node,2286,NODE 2532,Air,0
 Node,2287,NODE 2524,Air,0
 Node,2288,NODE 2516,Air,0
 Node,2289,NODE 2508,Air,0
 Node,2290,NODE 2500,Air,0
 Node,2291,NODE 2492,Air,0
 Node,2292,NODE 2484,Air,0
 Node,2293,NODE 2476,Air,0
 Node,2294,NODE 2468,Air,0
 Node,2295,NODE 2460,Air,0
 Node,2296,NODE 2452,Air,0
 Node,2297,NODE 2444,Air,0
 Node,2298,NODE 2436,Air,0
 Node,2299,NODE 2428,Air,0
 Node,2300,NODE 2420,Air,0
 Node,2301,NODE 2412,Air,0
 Node,2302,NODE 2404,Air,0
 Node,2303,NODE 2396,Air,0
 Node,2304,NODE 2388,Air,0
 Node,2305,NODE 2380,Air,0
 Node,2306,NODE 2372,Air,0
 Node,2307,NODE 2364,Air,0
 Node,2308,NODE 2356,Air,0
 Node,2309,NODE 2348,Air,0
 Node,2310,NODE 2340,Air,0
 Node,2311,NODE 2332,Air,0
 Node,2312,NODE 2324,Air,0
 Node,2313,NODE 2316,Air,0
 Node,2314,NODE 2308,Air,0
 Node,2315,NODE 2300,Air,0
 Node,2316,NODE 2292,Air,0
 Node,2317,NODE 2284,Air,0
 Node,2318,NODE 2276,Air,0
 Node,2319,NODE 2268,Air,0
 Node,2320,NODE 2260,Air,0
 Node,2321,NODE 2252,Air,0
 Node,2322,NODE 2244,Air,0
 Node,2323,NODE 2236,Air,0
 Node,2324,NODE 2228,Air,0
 Node,2325,NODE 2220,Air,0
 Node,2326,NODE 2212,Air,0
 Node,2327,NODE 2204,Air,0
 Node,2328,NODE 2196,Air,0
 Node,2329,NODE 2188,Air,0
 Node,2330,NODE 2180,Air,0
 Node,2331,NODE 2172,Air,0
 Node,2332,NODE 2164,Air,0
 Node,2333,NODE 2156,Air,0
 Node,2334,NODE 2148,Air,0
 Node,2335,NODE 2140,Air,0
 Node,2336,NODE 2132,Air,0
 Node,2337,NODE 2124,Air,0
 Node,2338,NODE 2116,Air,0
 Node,2339,NODE 2108,Air,0
 Node,2340,NODE 2100,Air,0
 Node,2341,NODE 2092,Air,0
 Node,2342,NODE 2084,Air,0
 Node,2343,NODE 2076,Air,0
 Node,2344,NODE 2068,Air,0
 Node,2345,NODE 2060,Air,0
 Node,2346,NODE 2052,Air,0
 Node,2347,NODE 2044,Air,0
 Node,2348,NODE 2036,Air,0
 Node,2349,NODE 2028,Air,0
 Node,2350,NODE 2020,Air,0
 Node,2351,NODE 2012,Air,0
 Node,2352,NODE 2004,Air,0
 Node,2353,NODE 1996,Air,0
 Node,2354,NODE 1988,Air,0
 Node,2355,NODE 1980,Air,0
 Node,2356,NODE 1972,Air,0
 Node,2357,NODE 1964,Air,0
 Node,2358,NODE 1956,Air,0
 Node,2359,NODE 1948,Air,0
 Node,2360,NODE 1940,Air,0
 Node,2361,NODE 1932,Air,0
 Node,2362,NODE 1924,Air,0
 Node,2363,NODE 1916,Air,0
 Node,2364,NODE 1908,Air,0
 Node,2365,NODE 1900,Air,0
 Node,2366,NODE 1892,Air,0
 Node,2367,NODE 1884,Air,0
 Node,2368,NODE 1876,Air,0
 Node,2369,NODE 1868,Air,0
 Node,2370,NODE 1860,Air,0
 Node,2371,NODE 1852,Air,0
 Node,2372,NODE 1844,Air,0
 Node,2373,NODE 1836,Air,0
 Node,2374,NODE 1828,Air,0
 Node,2375,NODE 1820,Air,0
 Node,2376,NODE 1812,Air,0
 Node,2377,NODE 1804,Air,0
 Node,2378,NODE 1796,Air,0
 Node,2379,NODE 1788,Air,0
 Node,2380,NODE 1780,Air,0
 Node,2381,NODE 1772,Air,0
 Node,2382,NODE 1764,Air,0
 Node,2383,NODE 1756,Air,0
 Node,2384,NODE 1748,Air,0
 Node,2385,NODE 1740,Air,0
 Node,2386,NODE 1732,Air,0
 Node,2387,NODE 1724,Air,0
 Node,2388,NODE 1716,Air,0
 Node,2389,NODE 1708,Air,0
 Node,2390,NODE 1700,Air,0
 Node,2391,NODE 1692,Air,0
 Node,2392,NODE 1684,Air,0
 Node,2393,NODE 1676,Air,0
 Node,2394,NODE 1668,Air,0
 Node,2395,NODE 1660,Air,0
 Node,2396,NODE 1652,Air,0
 Node,2397,NODE 1644,Air,0
 Node,2398,NODE 1636,Air,0
 Node,2399,NODE 1628,Air,0
 Node,2400,NODE 1620,Air,0
 Node,2401,NODE 1612,Air,0
 Node,2402,NODE 1604,Air,0
 Node,2403,NODE 1596,Air,0
 Node,2404,NODE 1588,Air,0
 Node,2405,NODE 1580,Air,0
 Node,2406,NODE 1572,Air,0
 Node,2407,NODE 1564,Air,0
 Node,2408,NODE 1556,Air,0
 Node,2409,NODE 1548,Air,0
 Node,2410,NODE 1540,Air,0
 Node,2411,NODE 1532,Air,0
 Node,2412,NODE 1524,Air,0
 Node,2413,NODE 1516,Air,0
 Node,2414,NODE 1508,Air,0
 Node,2415,NODE 1500,Air,0
 Node,2416,NODE 1492,Air,0
 Node,2417,NODE 1484,Air,0
 Node,2418,NODE 1476,Air,0
 Node,2419,NODE 1468,Air,0
 Node,2420,NODE 1460,Air,0
 Node,2421,NODE 1452,Air,0
 Node,2422,NODE 1444,Air,0
 Node,2423,NODE 1436,Air,0
 Node,2424,NODE 1428,Air,0
 Node,2425,NODE 1420,Air,0
 Node,2426,NODE 1412,Air,0
 Node,2427,NODE 1404,Air,0
 Node,2428,NODE 1396,Air,0
 Node,2429,NODE 1388,Air,0
 Node,2430,NODE 1380,Air,0
 Node,2431,NODE 1372,Air,0
 Node,2432,NODE 1364,Air,0
 Node,2433,NODE 1356,Air,0
 Node,2434,NODE 1348,Air,0
 Node,2435,NODE 1340,Air,0
 Node,2436,NODE 1332,Air,0
 Node,2437,NODE 1324,Air,0
 Node,2438,NODE 1316,Air,0
 Node,2439,NODE 1308,Air,0
 Node,2440,NODE 1300,Air,0
 Node,2441,NODE 1292,Air,0
 Node,2442,NODE 1284,Air,0
 Node,2443,NODE 1276,Air,0
 Node,2444,NODE 1268,Air,0
 Node,2445,NODE 1260,Air,0
 Node,2446,NODE 1252,Air,0
 Node,2447,NODE 1244,Air,0
 Node,2448,NODE 1236,Air,0
 Node,2449,NODE 1228,Air,0
 Node,2450,NODE 1220,Air,0
 Node,2451,NODE 1212,Air,0
 Node,2452,NODE 1204,Air,0
 Node,2453,NODE 1196,Air,0
 Node,2454,NODE 1188,Air,0
 Node,2455,NODE 1180,Air,0
 Node,2456,NODE 1172,Air,0
 Node,2457,NODE 1164,Air,0
 Node,2458,NODE 1156,Air,0
 Node,2459,NODE 1148,Air,0
 Node,2460,NODE 1140,Air,0
 Node,2461,NODE 1132,Air,0
 Node,2462,NODE 1124,Air,0
 Node,2463,NODE 1116,Air,0
 Node,2464,NODE 1108,Air,0
 Node,2465,NODE 1092,Air,0
 Node,2466,NODE 1100,Air,0
 Node,2467,NODE 1084,Air,0
 Node,2468,NODE 1076,Air,0
 Node,2469,NODE 1068,Air,0
 Node,2470,NODE 1060,Air,0
 Node,2471,NODE 1052,Air,0
 Node,2472,NODE 1044,Air,0
 Node,2473,NODE 1036,Air,0
 Node,2474,NODE 1028,Air,0
 Node,2475,NODE 1020,Air,0
 Node,2476,NODE 1012,Air,0
 Node,2477,NODE 1004,Air,0
 Node,2478,NODE 996,Air,0
 Node,2479,NODE 988,Air,0
 Node,2480,NODE 980,Air,0
 Node,2481,NODE 972,Air,0
 Node,2482,NODE 964,Air,0
 Node,2483,NODE 956,Air,0
 Node,2484,NODE 948,Air,0
 Node,2485,NODE 940,Air,0
 Node,2486,NODE 932,Air,0
 Node,2487,NODE 924,Air,0
 Node,2488,NODE 916,Air,0
 Node,2489,NODE 908,Air,0
 Node,2490,NODE 900,Air,0
 Node,2491,NODE 892,Air,0
 Node,2492,NODE 884,Air,0
 Node,2493,NODE 876,Air,0
 Node,2494,NODE 868,Air,0
 Node,2495,NODE 860,Air,0
 Node,2496,NODE 844,Air,0
 Node,2497,NODE 852,Air,0
 Node,2498,NODE 828,Air,0
 Node,2499,NODE 836,Air,0
 Node,2500,NODE 820,Air,0
 Node,2501,NODE 812,Air,0
 Node,2502,NODE 804,Air,0
 Node,2503,NODE 796,Air,0
 Node,2504,NODE 788,Air,0
 Node,2505,NODE 780,Air,0
 Node,2506,NODE 772,Air,0
 Node,2507,NODE 764,Air,0
 Node,2508,NODE 756,Air,0
 Node,2509,NODE 748,Air,0
 Node,2510,NODE 740,Air,0
 Node,2511,NODE 732,Air,0
 Node,2512,NODE 724,Air,0
 Node,2513,NODE 716,Air,0
 Node,2514,NODE 708,Air,0
 Node,2515,NODE 700,Air,0
 Node,2516,NODE 692,Air,0
 Node,2517,NODE 684,Air,0
 Node,2518,NODE 676,Air,0
 Node,2519,NODE 668,Air,0
 Node,2520,NODE 660,Air,0
 Node,2521,NODE 652,Air,0
 Node,2522,NODE 644,Air,0
 Node,2523,NODE 636,Air,0
 Node,2524,NODE 628,Air,0
 Node,2525,NODE 620,Air,0
 Node,2526,NODE 612,Air,0
 Node,2527,NODE 604,Air,0
 Node,2528,NODE 596,Air,0
 Node,2529,NODE 588,Air,0
 Node,2530,NODE 580,Air,0
 Node,2531,NODE 572,Air,0
 Node,2532,NODE 564,Air,0
 Node,2533,NODE 556,Air,0
 Node,2534,NODE 548,Air,0
 Node,2535,NODE 540,Air,0
 Node,2536,NODE 532,Air,0
 Node,2537,NODE 524,Air,0
 Node,2538,NODE 516,Air,0
 Node,2539,NODE 508,Air,0
 Node,2540,NODE 500,Air,0
 Node,2541,NODE 492,Air,0
 Node,2542,NODE 484,Air,0
 Node,2543,NODE 476,Air,0
 Node,2544,NODE 468,Air,0
 Node,2545,NODE 460,Air,0
 Node,2546,NODE 452,Air,0
 Node,2547,NODE 444,Air,0
 Node,2548,NODE 436,Air,0
 Node,2549,NODE 428,Air,0
 Node,2550,NODE 420,Air,0
 Node,2551,NODE 412,Air,0
 Node,2552,NODE 404,Air,0
 Node,2553,NODE 396,Air,0
 Node,2554,NODE 388,Air,0
 Node,2555,NODE 380,Air,0
 Node,2556,NODE 372,Air,0
 Node,2557,NODE 364,Air,0
 Node,2558,NODE 356,Air,0
 Node,2559,NODE 348,Air,0
 Node,2560,NODE 340,Air,0
 Node,2561,NODE 332,Air,0
 Node,2562,NODE 324,Air,0
 Node,2563,NODE 316,Air,0
 Node,2564,NODE 308,Air,0
 Node,2565,NODE 300,Air,0
 Node,2566,NODE 292,Air,0
 Node,2567,NODE 284,Air,0
 Node,2568,NODE 276,Air,0
 Node,2569,NODE 268,Air,0
 Node,2570,NODE 260,Air,0
 Node,2571,NODE 252,Air,0
 Node,2572,NODE 244,Air,0
 Node,2573,NODE 236,Air,0
 Node,2574,NODE 228,Air,0
 Node,2575,NODE 220,Air,0
 Node,2576,NODE 212,Air,0
 Node,2577,NODE 204,Air,0
 Node,2578,NODE 196,Air,0
 Node,2579,NODE 188,Air,0
 Node,2580,NODE 180,Air,0
 Node,2581,NODE 172,Air,0
 Node,2582,NODE 164,Air,0
 Node,2583,NODE 156,Air,0
 Node,2584,NODE 148,Air,0
 Node,2585,NODE 140,Air,0
 Node,2586,NODE 132,Air,0
 Node,2587,NODE 124,Air,0
 Node,2588,NODE 116,Air,0
 Node,2589,NODE 108,Air,0
 Node,2590,NODE 100,Air,0
 Node,2591,NODE 92,Air,0
 Node,2592,NODE 84,Air,0
 Node,2593,NODE 76,Air,0
 Node,2594,NODE 68,Air,0
 Node,2595,NODE 60,Air,0
 Node,2596,NODE 52,Air,0
 Node,2597,NODE 44,Air,0
 Node,2598,NODE 36,Air,0
 Node,2599,NODE 28,Air,0
 Node,2600,NODE 21,Air,0
 Node,2601,NODE 12,Air,2
 Node,2602,ZONE HVAC FOUR PIPE FAN COIL 365 OA NODE,Air,1
 Node,2603,ZONE HVAC FOUR PIPE FAN COIL 364 OA NODE,Air,1
 Node,2604,ZONE HVAC FOUR PIPE FAN COIL 363 OA NODE,Air,1
 Node,2605,ZONE HVAC FOUR PIPE FAN COIL 362 OA NODE,Air,1
 Node,2606,ZONE HVAC FOUR PIPE FAN COIL 361 OA NODE,Air,1
 Node,2607,ZONE HVAC FOUR PIPE FAN COIL 360 OA NODE,Air,1
 Node,2608,ZONE HVAC FOUR PIPE FAN COIL 359 OA NODE,Air,1
 Node,2609,ZONE HVAC FOUR PIPE FAN COIL 358 OA NODE,Air,1
 Node,2610,ZONE HVAC FOUR PIPE FAN COIL 357 OA NODE,Air,1
 Node,2611,ZONE HVAC FOUR PIPE FAN COIL 356 OA NODE,Air,1
 Node,2612,ZONE HVAC FOUR PIPE FAN COIL 355 OA NODE,Air,1
 Node,2613,ZONE HVAC FOUR PIPE FAN COIL 354 OA NODE,Air,1
 Node,2614,ZONE HVAC FOUR PIPE FAN COIL 353 OA NODE,Air,1
 Node,2615,ZONE HVAC FOUR PIPE FAN COIL 352 OA NODE,Air,1
 Node,2616,ZONE HVAC FOUR PIPE FAN COIL 351 OA NODE,Air,1
 Node,2617,ZONE HVAC FOUR PIPE FAN COIL 350 OA NODE,Air,1
 Node,2618,ZONE HVAC FOUR PIPE FAN COIL 349 OA NODE,Air,1
 Node,2619,ZONE HVAC FOUR PIPE FAN COIL 348 OA NODE,Air,1
 Node,2620,ZONE HVAC FOUR PIPE FAN COIL 347 OA NODE,Air,1
 Node,2621,ZONE HVAC FOUR PIPE FAN COIL 346 OA NODE,Air,1
 Node,2622,ZONE HVAC FOUR PIPE FAN COIL 345 OA NODE,Air,1
 Node,2623,ZONE HVAC FOUR PIPE FAN COIL 344 OA NODE,Air,1
 Node,2624,ZONE HVAC FOUR PIPE FAN COIL 343 OA NODE,Air,1
 Node,2625,ZONE HVAC FOUR PIPE FAN COIL 342 OA NODE,Air,1
 Node,2626,ZONE HVAC FOUR PIPE FAN COIL 341 OA NODE,Air,1
 Node,2627,ZONE HVAC FOUR PIPE FAN COIL 340 OA NODE,Air,1
 Node,2628,ZONE HVAC FOUR PIPE FAN COIL 339 OA NODE,Air,1
 Node,2629,ZONE HVAC FOUR PIPE FAN COIL 338 OA NODE,Air,1
 Node,2630,ZONE HVAC FOUR PIPE FAN COIL 331 OA NODE,Air,1
 Node,2631,ZONE HVAC FOUR PIPE FAN COIL 336 OA NODE,Air,1
 Node,2632,ZONE HVAC FOUR PIPE FAN COIL 335 OA NODE,Air,1
 Node,2633,ZONE HVAC FOUR PIPE FAN COIL 334 OA NODE,Air,1
 Node,2634,ZONE HVAC FOUR PIPE FAN COIL 333 OA NODE,Air,1
 Node,2635,ZONE HVAC FOUR PIPE FAN COIL 332 OA NODE,Air,1
 Node,2636,ZONE HVAC FOUR PIPE FAN COIL 330 OA NODE,Air,1
 Node,2637,ZONE HVAC FOUR PIPE FAN COIL 329 OA NODE,Air,1
 Node,2638,ZONE HVAC FOUR PIPE FAN COIL 328 OA NODE,Air,1
 Node,2639,ZONE HVAC FOUR PIPE FAN COIL 327 OA NODE,Air,1
 Node,2640,ZONE HVAC FOUR PIPE FAN COIL 326 OA NODE,Air,1
 Node,2641,ZONE HVAC FOUR PIPE FAN COIL 325 OA NODE,Air,1
 Node,2642,ZONE HVAC FOUR PIPE FAN COIL 324 OA NODE,Air,1
 Node,2643,ZONE HVAC FOUR PIPE FAN COIL 323 OA NODE,Air,1
 Node,2644,ZONE HVAC FOUR PIPE FAN COIL 337 OA NODE,Air,1
 Node,2645,ZONE HVAC FOUR PIPE FAN COIL 322 OA NODE,Air,1
 Node,2646,ZONE HVAC FOUR PIPE FAN COIL 321 OA NODE,Air,1
 Node,2647,ZONE HVAC FOUR PIPE FAN COIL 320 OA NODE,Air,1
 Node,2648,ZONE HVAC FOUR PIPE FAN COIL 319 OA NODE,Air,1
 Node,2649,ZONE HVAC FOUR PIPE FAN COIL 318 OA NODE,Air,1
 Node,2650,ZONE HVAC FOUR PIPE FAN COIL 317 OA NODE,Air,1
 Node,2651,ZONE HVAC FOUR PIPE FAN COIL 316 OA NODE,Air,1
 Node,2652,ZONE HVAC FOUR PIPE FAN COIL 315 OA NODE,Air,1
 Node,2653,ZONE HVAC FOUR PIPE FAN COIL 314 OA NODE,Air,1
 Node,2654,ZONE HVAC FOUR PIPE FAN COIL 313 OA NODE,Air,1
 Node,2655,ZONE HVAC FOUR PIPE FAN COIL 312 OA NODE,Air,1
 Node,2656,ZONE HVAC FOUR PIPE FAN COIL 311 OA NODE,Air,1
 Node,2657,ZONE HVAC FOUR PIPE FAN COIL 310 OA NODE,Air,1
 Node,2658,ZONE HVAC FOUR PIPE FAN COIL 309 OA NODE,Air,1
 Node,2659,ZONE HVAC FOUR PIPE FAN COIL 308 OA NODE,Air,1
 Node,2660,ZONE HVAC FOUR PIPE FAN COIL 307 OA NODE,Air,1
 Node,2661,ZONE HVAC FOUR PIPE FAN COIL 306 OA NODE,Air,1
 Node,2662,ZONE HVAC FOUR PIPE FAN COIL 305 OA NODE,Air,1
 Node,2663,ZONE HVAC FOUR PIPE FAN COIL 304 OA NODE,Air,1
 Node,2664,ZONE HVAC FOUR PIPE FAN COIL 303 OA NODE,Air,1
 Node,2665,ZONE HVAC FOUR PIPE FAN COIL 302 OA NODE,Air,1
 Node,2666,ZONE HVAC FOUR PIPE FAN COIL 301 OA NODE,Air,1
 Node,2667,ZONE HVAC FOUR PIPE FAN COIL 300 OA NODE,Air,1
 Node,2668,ZONE HVAC FOUR PIPE FAN COIL 299 OA NODE,Air,1
 Node,2669,ZONE HVAC FOUR PIPE FAN COIL 298 OA NODE,Air,1
 Node,2670,ZONE HVAC FOUR PIPE FAN COIL 297 OA NODE,Air,1
 Node,2671,ZONE HVAC FOUR PIPE FAN COIL 296 OA NODE,Air,1
 Node,2672,ZONE HVAC FOUR PIPE FAN COIL 295 OA NODE,Air,1
 Node,2673,ZONE HVAC FOUR PIPE FAN COIL 294 OA NODE,Air,1
 Node,2674,ZONE HVAC FOUR PIPE FAN COIL 293 OA NODE,Air,1
 Node,2675,ZONE HVAC FOUR PIPE FAN COIL 292 OA NODE,Air,1
 Node,2676,ZONE HVAC FOUR PIPE FAN COIL 291 OA NODE,Air,1
 Node,2677,ZONE HVAC FOUR PIPE FAN COIL 290 OA NODE,Air,1
 Node,2678,ZONE HVAC FOUR PIPE FAN COIL 289 OA NODE,Air,1
 Node,2679,ZONE HVAC FOUR PIPE FAN COIL 288 OA NODE,Air,1
 Node,2680,ZONE HVAC FOUR PIPE FAN COIL 287 OA NODE,Air,1
 Node,2681,ZONE HVAC FOUR PIPE FAN COIL 286 OA NODE,Air,1
 Node,2682,ZONE HVAC FOUR PIPE FAN COIL 285 OA NODE,Air,1
 Node,2683,ZONE HVAC FOUR PIPE FAN COIL 284 OA NODE,Air,1
 Node,2684,ZONE HVAC FOUR PIPE FAN COIL 283 OA NODE,Air,1
 Node,2685,ZONE HVAC FOUR PIPE FAN COIL 282 OA NODE,Air,1
 Node,2686,ZONE HVAC FOUR PIPE FAN COIL 281 OA NODE,Air,1
 Node,2687,ZONE HVAC FOUR PIPE FAN COIL 280 OA NODE,Air,1
 Node,2688,ZONE HVAC FOUR PIPE FAN COIL 279 OA NODE,Air,1
 Node,2689,ZONE HVAC FOUR PIPE FAN COIL 278 OA NODE,Air,1
 Node,2690,ZONE HVAC FOUR PIPE FAN COIL 277 OA NODE,Air,1
 Node,2691,ZONE HVAC FOUR PIPE FAN COIL 276 OA NODE,Air,1
 Node,2692,ZONE HVAC FOUR PIPE FAN COIL 275 OA NODE,Air,1
 Node,2693,ZONE HVAC FOUR PIPE FAN COIL 274 OA NODE,Air,1
 Node,2694,ZONE HVAC FOUR PIPE FAN COIL 273 OA NODE,Air,1
 Node,2695,ZONE HVAC FOUR PIPE FAN COIL 272 OA NODE,Air,1
 Node,2696,ZONE HVAC FOUR PIPE FAN COIL 271 OA NODE,Air,1
 Node,2697,ZONE HVAC FOUR PIPE FAN COIL 270 OA NODE,Air,1
 Node,2698,ZONE HVAC FOUR PIPE FAN COIL 269 OA NODE,Air,1
 Node,2699,ZONE HVAC FOUR PIPE FAN COIL 268 OA NODE,Air,1
 Node,2700,ZONE HVAC FOUR PIPE FAN COIL 267 OA NODE,Air,1
 Node,2701,ZONE HVAC FOUR PIPE FAN COIL 266 OA NODE,Air,1
 Node,2702,ZONE HVAC FOUR PIPE FAN COIL 265 OA NODE,Air,1
 Node,2703,ZONE HVAC FOUR PIPE FAN COIL 264 OA NODE,Air,1
 Node,2704,ZONE HVAC FOUR PIPE FAN COIL 263 OA NODE,Air,1
 Node,2705,ZONE HVAC FOUR PIPE FAN COIL 262 OA NODE,Air,1
 Node,2706,ZONE HVAC FOUR PIPE FAN COIL 261 OA NODE,Air,1
 Node,2707,ZONE HVAC FOUR PIPE FAN COIL 260 OA NODE,Air,1
 Node,2708,ZONE HVAC FOUR PIPE FAN COIL 259 OA NODE,Air,1
 Node,2709,ZONE HVAC FOUR PIPE FAN COIL 258 OA NODE,Air,1
 Node,2710,ZONE HVAC FOUR PIPE FAN COIL 257 OA NODE,Air,1
 Node,2711,ZONE HVAC FOUR PIPE FAN COIL 256 OA NODE,Air,1
 Node,2712,ZONE HVAC FOUR PIPE FAN COIL 255 OA NODE,Air,1
 Node,2713,ZONE HVAC FOUR PIPE FAN COIL 254 OA NODE,Air,1
 Node,2714,ZONE HVAC FOUR PIPE FAN COIL 253 OA NODE,Air,1
 Node,2715,ZONE HVAC FOUR PIPE FAN COIL 252 OA NODE,Air,1
 Node,2716,ZONE HVAC FOUR PIPE FAN COIL 251 OA NODE,Air,1
 Node,2717,ZONE HVAC FOUR PIPE FAN COIL 250 OA NODE,Air,1
 Node,2718,ZONE HVAC FOUR PIPE FAN COIL 249 OA NODE,Air,1
 Node,2719,ZONE HVAC FOUR PIPE FAN COIL 248 OA NODE,Air,1
 Node,2720,ZONE HVAC FOUR PIPE FAN COIL 247 OA NODE,Air,1
 Node,2721,ZONE HVAC FOUR PIPE FAN COIL 246 OA NODE,Air,1
 Node,2722,ZONE HVAC FOUR PIPE FAN COIL 245 OA NODE,Air,1
 Node,2723,ZONE HVAC FOUR PIPE FAN COIL 244 OA NODE,Air,1
 Node,2724,ZONE HVAC FOUR PIPE FAN COIL 243 OA NODE,Air,1
 Node,2725,ZONE HVAC FOUR PIPE FAN COIL 242 OA NODE,Air,1
 Node,2726,ZONE HVAC FOUR PIPE FAN COIL 241 OA NODE,Air,1
 Node,2727,ZONE HVAC FOUR PIPE FAN COIL 240 OA NODE,Air,1
 Node,2728,ZONE HVAC FOUR PIPE FAN COIL 239 OA NODE,Air,1
 Node,2729,ZONE HVAC FOUR PIPE FAN COIL 238 OA NODE,Air,1
 Node,2730,ZONE HVAC FOUR PIPE FAN COIL 237 OA NODE,Air,1
 Node,2731,ZONE HVAC FOUR PIPE FAN COIL 236 OA NODE,Air,1
 Node,2732,ZONE HVAC FOUR PIPE FAN COIL 235 OA NODE,Air,1
 Node,2733,ZONE HVAC FOUR PIPE FAN COIL 234 OA NODE,Air,1
 Node,2734,ZONE HVAC FOUR PIPE FAN COIL 233 OA NODE,Air,1
 Node,2735,ZONE HVAC FOUR PIPE FAN COIL 232 OA NODE,Air,1
 Node,2736,ZONE HVAC FOUR PIPE FAN COIL 231 OA NODE,Air,1
 Node,2737,ZONE HVAC FOUR PIPE FAN COIL 230 OA NODE,Air,1
 Node,2738,ZONE HVAC FOUR PIPE FAN COIL 229 OA NODE,Air,1
 Node,2739,ZONE HVAC FOUR PIPE FAN COIL 228 OA NODE,Air,1
 Node,2740,ZONE HVAC FOUR PIPE FAN COIL 227 OA NODE,Air,1
 Node,2741,ZONE HVAC FOUR PIPE FAN COIL 226 OA NODE,Air,1
 Node,2742,ZONE HVAC FOUR PIPE FAN COIL 225 OA NODE,Air,1
 Node,2743,ZONE HVAC FOUR PIPE FAN COIL 224 OA NODE,Air,1
 Node,2744,ZONE HVAC FOUR PIPE FAN COIL 223 OA NODE,Air,1
 Node,2745,ZONE HVAC FOUR PIPE FAN COIL 222 OA NODE,Air,1
 Node,2746,ZONE HVAC FOUR PIPE FAN COIL 221 OA NODE,Air,1
 Node,2747,ZONE HVAC FOUR PIPE FAN COIL 220 OA NODE,Air,1
 Node,2748,ZONE HVAC FOUR PIPE FAN COIL 219 OA NODE,Air,1
 Node,2749,ZONE HVAC FOUR PIPE FAN COIL 218 OA NODE,Air,1
 Node,2750,ZONE HVAC FOUR PIPE FAN COIL 217 OA NODE,Air,1
 Node,2751,ZONE HVAC FOUR PIPE FAN COIL 216 OA NODE,Air,1
 Node,2752,ZONE HVAC FOUR PIPE FAN COIL 215 OA NODE,Air,1
[...]
 Non-Parent Node Connection,NODE 1352,AIRLOOPHVAC:ZONEMIXER,AIR LOOP HVAC ZONE MIXER 1,Inlet,1
 Non-Parent Node Connection,NODE 1360,AIRLOOPHVAC:ZONEMIXER,AIR LOOP HVAC ZONE MIXER 1,Inlet,1
 Non-Parent Node Connection,NODE 1368,AIRLOOPHVAC:ZONEMIXER,AIR LOOP HVAC ZONE MIXER 1,Inlet,1
 Non-Parent Node Connection,NODE 1376,AIRLOOPHVAC:ZONEMIXER,AIR LOOP HVAC ZONE MIXER 1,Inlet,1
 Non-Parent Node Connection,NODE 1384,AIRLOOPHVAC:ZONEMIXER,AIR LOOP HVAC ZONE MIXER 1,Inlet,1
 Non-Parent Node Connection,NODE 1392,AIRLOOPHVAC:ZONEMIXER,AIR LOOP HVAC ZONE MIXER 1,Inlet,1
 Non-Parent Node Connection,NODE 1400,AIRLOOPHVAC:ZONEMIXER,AIR LOOP HVAC ZONE MIXER 1,Inlet,1
 Non-Parent Node Connection,NODE 1408,AIRLOOPHVAC:ZONEMIXER,AIR LOOP HVAC ZONE MIXER 1,Inlet,1
 Non-Parent Node Connection,NODE 1416,AIRLOOPHVAC:ZONEMIXER,AIR LOOP HVAC ZONE MIXER 1,Inlet,1
 Non-Parent Node Connection,NODE 1424,AIRLOOPHVAC:ZONEMIXER,AIR LOOP HVAC ZONE MIXER 1,Inlet,1
 Non-Parent Node Connection,NODE 1432,AIRLOOPHVAC:ZONEMIXER,AIR LOOP HVAC ZONE MIXER 1,Inlet,1
 Non-Parent Node Connection,NODE 1440,AIRLOOPHVAC:ZONEMIXER,AIR LOOP HVAC ZONE MIXER 1,Inlet,1
 Non-Parent Node Connection,NODE 1448,AIRLOOPHVAC:ZONEMIXER,AIR LOOP HVAC ZONE MIXER 1,Inlet,1
 Non-Parent Node Connection,NODE 1456,AIRLOOPHVAC:ZONEMIXER,AIR LOOP HVAC ZONE MIXER 1,Inlet,1
 Non-Parent Node Connection,NODE 1464,AIRLOOPHVAC:ZONEMIXER,AIR LOOP HVAC ZONE MIXER 1,Inlet,1
 Non-Parent Node Connection,NODE 1472,AIRLOOPHVAC:ZONEMIXER,AIR LOOP HVAC ZONE MIXER 1,Inlet,1
 Non-Parent Node Connection,NODE 1480,AIRLOOPHVAC:ZONEMIXER,AIR LOOP HVAC ZONE MIXER 1,Inlet,1
 Non-Parent Node Connection,NODE 1488,AIRLOOPHVAC:ZONEMIXER,AIR LOOP HVAC ZONE MIXER 1,Inlet,1
 Non-Parent Node Connection,NODE 1496,AIRLOOPHVAC:ZONEMIXER,AIR LOOP HVAC ZONE MIXER 1,Inlet,1
 Non-Parent Node Connection,NODE 1504,AIRLOOPHVAC:ZONEMIXER,AIR LOOP HVAC ZONE MIXER 1,Inlet,1
 Non-Parent Node Connection,NODE 1512,AIRLOOPHVAC:ZONEMIXER,AIR LOOP HVAC ZONE MIXER 1,Inlet,1
 Non-Parent Node Connection,NODE 1520,AIRLOOPHVAC:ZONEMIXER,AIR LOOP HVAC ZONE MIXER 1,Inlet,1
 Non-Parent Node Connection,NODE 1528,AIRLOOPHVAC:ZONEMIXER,AIR LOOP HVAC ZONE MIXER 1,Inlet,1
 Non-Parent Node Connection,NODE 1536,AIRLOOPHVAC:ZONEMIXER,AIR LOOP HVAC ZONE MIXER 1,Inlet,1
 Non-Parent Node Connection,NODE 1544,AIRLOOPHVAC:ZONEMIXER,AIR LOOP HVAC ZONE MIXER 1,Inlet,1
 Non-Parent Node Connection,NODE 1552,AIRLOOPHVAC:ZONEMIXER,AIR LOOP HVAC ZONE MIXER 1,Inlet,1
 Non-Parent Node Connection,NODE 1560,AIRLOOPHVAC:ZONEMIXER,AIR LOOP HVAC ZONE MIXER 1,Inlet,1
 Non-Parent Node Connection,NODE 1568,AIRLOOPHVAC:ZONEMIXER,AIR LOOP HVAC ZONE MIXER 1,Inlet,1
 Non-Parent Node Connection,NODE 1576,AIRLOOPHVAC:ZONEMIXER,AIR LOOP HVAC ZONE MIXER 1,Inlet,1
 Non-Parent Node Connection,NODE 1584,AIRLOOPHVAC:ZONEMIXER,AIR LOOP HVAC ZONE MIXER 1,Inlet,1
 Non-Parent Node Connection,NODE 1592,AIRLOOPHVAC:ZONEMIXER,AIR LOOP HVAC ZONE MIXER 1,Inlet,1
 Non-Parent Node Connection,NODE 1600,AIRLOOPHVAC:ZONEMIXER,AIR LOOP HVAC ZONE MIXER 1,Inlet,1
 Non-Parent Node Connection,NODE 1608,AIRLOOPHVAC:ZONEMIXER,AIR LOOP HVAC ZONE MIXER 1,Inlet,1
 Non-Parent Node Connection,NODE 1616,AIRLOOPHVAC:ZONEMIXER,AIR LOOP HVAC ZONE MIXER 1,Inlet,1
 Non-Parent Node Connection,NODE 1624,AIRLOOPHVAC:ZONEMIXER,AIR LOOP HVAC ZONE MIXER 1,Inlet,1
 Non-Parent Node Connection,NODE 1632,AIRLOOPHVAC:ZONEMIXER,AIR LOOP HVAC ZONE MIXER 1,Inlet,1
 Non-Parent Node Connection,NODE 1640,AIRLOOPHVAC:ZONEMIXER,AIR LOOP HVAC ZONE MIXER 1,Inlet,1
 Non-Parent Node Connection,NODE 1648,AIRLOOPHVAC:ZONEMIXER,AIR LOOP HVAC ZONE MIXER 1,Inlet,1
 Non-Parent Node Connection,NODE 1656,AIRLOOPHVAC:ZONEMIXER,AIR LOOP HVAC ZONE MIXER 1,Inlet,1
 Non-Parent Node Connection,NODE 1664,AIRLOOPHVAC:ZONEMIXER,AIR LOOP HVAC ZONE MIXER 1,Inlet,1
 Non-Parent Node Connection,NODE 1672,AIRLOOPHVAC:ZONEMIXER,AIR LOOP HVAC ZONE MIXER 1,Inlet,1
 Non-Parent Node Connection,NODE 1680,AIRLOOPHVAC:ZONEMIXER,AIR LOOP HVAC ZONE MIXER 1,Inlet,1
 Non-Parent Node Connection,NODE 1688,AIRLOOPHVAC:ZONEMIXER,AIR LOOP HVAC ZONE MIXER 1,Inlet,1
 Non-Parent Node Connection,NODE 1696,AIRLOOPHVAC:ZONEMIXER,AIR LOOP HVAC ZONE MIXER 1,Inlet,1
 Non-Parent Node Connection,NODE 1704,AIRLOOPHVAC:ZONEMIXER,AIR LOOP HVAC ZONE MIXER 1,Inlet,1
 Non-Parent Node Connection,NODE 1712,AIRLOOPHVAC:ZONEMIXER,AIR LOOP HVAC ZONE MIXER 1,Inlet,1
 Non-Parent Node Connection,NODE 1720,AIRLOOPHVAC:ZONEMIXER,AIR LOOP HVAC ZONE MIXER 1,Inlet,1
 Non-Parent Node Connection,NODE 1728,AIRLOOPHVAC:ZONEMIXER,AIR LOOP HVAC ZONE MIXER 1,Inlet,1
 Non-Parent Node Connection,NODE 1736,AIRLOOPHVAC:ZONEMIXER,AIR LOOP HVAC ZONE MIXER 1,Inlet,1
 Non-Parent Node Connection,NODE 1744,AIRLOOPHVAC:ZONEMIXER,AIR LOOP HVAC ZONE MIXER 1,Inlet,1
 Non-Parent Node Connection,NODE 1752,AIRLOOPHVAC:ZONEMIXER,AIR LOOP HVAC ZONE MIXER 1,Inlet,1
 Non-Parent Node Connection,NODE 1760,AIRLOOPHVAC:ZONEMIXER,AIR LOOP HVAC ZONE MIXER 1,Inlet,1
 Non-Parent Node Connection,NODE 1768,AIRLOOPHVAC:ZONEMIXER,AIR LOOP HVAC ZONE MIXER 1,Inlet,1
 Non-Parent Node Connection,NODE 1776,AIRLOOPHVAC:ZONEMIXER,AIR LOOP HVAC ZONE MIXER 1,Inlet,1
 Non-Parent Node Connection,NODE 1784,AIRLOOPHVAC:ZONEMIXER,AIR LOOP HVAC ZONE MIXER 1,Inlet,1
 Non-Parent Node Connection,NODE 1792,AIRLOOPHVAC:ZONEMIXER,AIR LOOP HVAC ZONE MIXER 1,Inlet,1
 Non-Parent Node Connection,NODE 1800,AIRLOOPHVAC:ZONEMIXER,AIR LOOP HVAC ZONE MIXER 1,Inlet,1
 Non-Parent Node Connection,NODE 1808,AIRLOOPHVAC:ZONEMIXER,AIR LOOP HVAC ZONE MIXER 1,Inlet,1
 Non-Parent Node Connection,NODE 1816,AIRLOOPHVAC:ZONEMIXER,AIR LOOP HVAC ZONE MIXER 1,Inlet,1
 Non-Parent Node Connection,NODE 1824,AIRLOOPHVAC:ZONEMIXER,AIR LOOP HVAC ZONE MIXER 1,Inlet,1
 Non-Parent Node Connection,NODE 1832,AIRLOOPHVAC:ZONEMIXER,AIR LOOP HVAC ZONE MIXER 1,Inlet,1
 Non-Parent Node Connection,NODE 1840,AIRLOOPHVAC:ZONEMIXER,AIR LOOP HVAC ZONE MIXER 1,Inlet,1
 Non-Parent Node Connection,NODE 1848,AIRLOOPHVAC:ZONEMIXER,AIR LOOP HVAC ZONE MIXER 1,Inlet,1
 Non-Parent Node Connection,NODE 1856,AIRLOOPHVAC:ZONEMIXER,AIR LOOP HVAC ZONE MIXER 1,Inlet,1
 Non-Parent Node Connection,NODE 1864,AIRLOOPHVAC:ZONEMIXER,AIR LOOP HVAC ZONE MIXER 1,Inlet,1
 Non-Parent Node Connection,NODE 1872,AIRLOOPHVAC:ZONEMIXER,AIR LOOP HVAC ZONE MIXER 1,Inlet,1
 Non-Parent Node Connection,NODE 1880,AIRLOOPHVAC:ZONEMIXER,AIR LOOP HVAC ZONE MIXER 1,Inlet,1
 Non-Parent Node Connection,NODE 1888,AIRLOOPHVAC:ZONEMIXER,AIR LOOP HVAC ZONE MIXER 1,Inlet,1
 Non-Parent Node Connection,NODE 1896,AIRLOOPHVAC:ZONEMIXER,AIR LOOP HVAC ZONE MIXER 1,Inlet,1
 Non-Parent Node Connection,NODE 1904,AIRLOOPHVAC:ZONEMIXER,AIR LOOP HVAC ZONE MIXER 1,Inlet,1
 Non-Parent Node Connection,NODE 1912,AIRLOOPHVAC:ZONEMIXER,AIR LOOP HVAC ZONE MIXER 1,Inlet,1
 Non-Parent Node Connection,NODE 1920,AIRLOOPHVAC:ZONEMIXER,AIR LOOP HVAC ZONE MIXER 1,Inlet,1
 Non-Parent Node Connection,NODE 1928,AIRLOOPHVAC:ZONEMIXER,AIR LOOP HVAC ZONE MIXER 1,Inlet,1
 Non-Parent Node Connection,NODE 1936,AIRLOOPHVAC:ZONEMIXER,AIR LOOP HVAC ZONE MIXER 1,Inlet,1
 Non-Parent Node Connection,NODE 1944,AIRLOOPHVAC:ZONEMIXER,AIR LOOP HVAC ZONE MIXER 1,Inlet,1
 Non-Parent Node Connection,NODE 1952,AIRLOOPHVAC:ZONEMIXER,AIR LOOP HVAC ZONE MIXER 1,Inlet,1
 Non-Parent Node Connection,NODE 1960,AIRLOOPHVAC:ZONEMIXER,AIR LOOP HVAC ZONE MIXER 1,Inlet,1
 Non-Parent Node Connection,NODE 1968,AIRLOOPHVAC:ZONEMIXER,AIR LOOP HVAC ZONE MIXER 1,Inlet,1
 Non-Parent Node Connection,NODE 1976,AIRLOOPHVAC:ZONEMIXER,AIR LOOP HVAC ZONE MIXER 1,Inlet,1
 Non-Parent Node Connection,NODE 1984,AIRLOOPHVAC:ZONEMIXER,AIR LOOP HVAC ZONE MIXER 1,Inlet,1
 Non-Parent Node Connection,NODE 1992,AIRLOOPHVAC:ZONEMIXER,AIR LOOP HVAC ZONE MIXER 1,Inlet,1
 Non-Parent Node Connection,NODE 2000,AIRLOOPHVAC:ZONEMIXER,AIR LOOP HVAC ZONE MIXER 1,Inlet,1
 Non-Parent Node Connection,NODE 2008,AIRLOOPHVAC:ZONEMIXER,AIR LOOP HVAC ZONE MIXER 1,Inlet,1
 Non-Parent Node Connection,NODE 2016,AIRLOOPHVAC:ZONEMIXER,AIR LOOP HVAC ZONE MIXER 1,Inlet,1
 Non-Parent Node Connection,NODE 2024,AIRLOOPHVAC:ZONEMIXER,AIR LOOP HVAC ZONE MIXER 1,Inlet,1
 Non-Parent Node Connection,NODE 2032,AIRLOOPHVAC:ZONEMIXER,AIR LOOP HVAC ZONE MIXER 1,Inlet,1
 Non-Parent Node Connection,NODE 2040,AIRLOOPHVAC:ZONEMIXER,AIR LOOP HVAC ZONE MIXER 1,Inlet,1
 Non-Parent Node Connection,NODE 2048,AIRLOOPHVAC:ZONEMIXER,AIR LOOP HVAC ZONE MIXER 1,Inlet,1
 Non-Parent Node Connection,NODE 2056,AIRLOOPHVAC:ZONEMIXER,AIR LOOP HVAC ZONE MIXER 1,Inlet,1
 Non-Parent Node Connection,NODE 2064,AIRLOOPHVAC:ZONEMIXER,AIR LOOP HVAC ZONE MIXER 1,Inlet,1
 Non-Parent Node Connection,NODE 2072,AIRLOOPHVAC:ZONEMIXER,AIR LOOP HVAC ZONE MIXER 1,Inlet,1
 Non-Parent Node Connection,NODE 2080,AIRLOOPHVAC:ZONEMIXER,AIR LOOP HVAC ZONE MIXER 1,Inlet,1
 Non-Parent Node Connection,NODE 2088,AIRLOOPHVAC:ZONEMIXER,AIR LOOP HVAC ZONE MIXER 1,Inlet,1
 Non-Parent Node Connection,NODE 2096,AIRLOOPHVAC:ZONEMIXER,AIR LOOP HVAC ZONE MIXER 1,Inlet,1
 Non-Parent Node Connection,NODE 2104,AIRLOOPHVAC:ZONEMIXER,AIR LOOP HVAC ZONE MIXER 1,Inlet,1
 Non-Parent Node Connection,NODE 2112,AIRLOOPHVAC:ZONEMIXER,AIR LOOP HVAC ZONE MIXER 1,Inlet,1
 Non-Parent Node Connection,NODE 2120,AIRLOOPHVAC:ZONEMIXER,AIR LOOP HVAC ZONE MIXER 1,Inlet,1
 Non-Parent Node Connection,NODE 2128,AIRLOOPHVAC:ZONEMIXER,AIR LOOP HVAC ZONE MIXER 1,Inlet,1
 Non-Parent Node Connection,NODE 2136,AIRLOOPHVAC:ZONEMIXER,AIR LOOP HVAC ZONE MIXER 1,Inlet,1
 Non-Parent Node Connection,NODE 2144,AIRLOOPHVAC:ZONEMIXER,AIR LOOP HVAC ZONE MIXER 1,Inlet,1
 Non-Parent Node Connection,NODE 2152,AIRLOOPHVAC:ZONEMIXER,AIR LOOP HVAC ZONE MIXER 1,Inlet,1
 Non-Parent Node Connection,NODE 2160,AIRLOOPHVAC:ZONEMIXER,AIR LOOP HVAC ZONE MIXER 1,Inlet,1
 Non-Parent Node Connection,NODE 2168,AIRLOOPHVAC:ZONEMIXER,AIR LOOP HVAC ZONE MIXER 1,Inlet,1
 Non-Parent Node Connection,NODE 2176,AIRLOOPHVAC:ZONEMIXER,AIR LOOP HVAC ZONE MIXER 1,Inlet,1
 Non-Parent Node Connection,NODE 2184,AIRLOOPHVAC:ZONEMIXER,AIR LOOP HVAC ZONE MIXER 1,Inlet,1
 Non-Parent Node Connection,NODE 2192,AIRLOOPHVAC:ZONEMIXER,AIR LOOP HVAC ZONE MIXER 1,Inlet,1
 Non-Parent Node Connection,NODE 2200,AIRLOOPHVAC:ZONEMIXER,AIR LOOP HVAC ZONE MIXER 1,Inlet,1
 Non-Parent Node Connection,NODE 2208,AIRLOOPHVAC:ZONEMIXER,AIR LOOP HVAC ZONE MIXER 1,Inlet,1
 Non-Parent Node Connection,NODE 2216,AIRLOOPHVAC:ZONEMIXER,AIR LOOP HVAC ZONE MIXER 1,Inlet,1
 Non-Parent Node Connection,NODE 2224,AIRLOOPHVAC:ZONEMIXER,AIR LOOP HVAC ZONE MIXER 1,Inlet,1
 Non-Parent Node Connection,NODE 2232,AIRLOOPHVAC:ZONEMIXER,AIR LOOP HVAC ZONE MIXER 1,Inlet,1
 Non-Parent Node Connection,NODE 2240,AIRLOOPHVAC:ZONEMIXER,AIR LOOP HVAC ZONE MIXER 1,Inlet,1
 Non-Parent Node Connection,NODE 2248,AIRLOOPHVAC:ZONEMIXER,AIR LOOP HVAC ZONE MIXER 1,Inlet,1
 Non-Parent Node Connection,NODE 2256,AIRLOOPHVAC:ZONEMIXER,AIR LOOP HVAC ZONE MIXER 1,Inlet,1
 Non-Parent Node Connection,NODE 2264,AIRLOOPHVAC:ZONEMIXER,AIR LOOP HVAC ZONE MIXER 1,Inlet,1
 Non-Parent Node Connection,NODE 2272,AIRLOOPHVAC:ZONEMIXER,AIR LOOP HVAC ZONE MIXER 1,Inlet,1
 Non-Parent Node Connection,NODE 2280,AIRLOOPHVAC:ZONEMIXER,AIR LOOP HVAC ZONE MIXER 1,Inlet,1
 Non-Parent Node Connection,NODE 2288,AIRLOOPHVAC:ZONEMIXER,AIR LOOP HVAC ZONE MIXER 1,Inlet,1
 Non-Parent Node Connection,NODE 2296,AIRLOOPHVAC:ZONEMIXER,AIR LOOP HVAC ZONE MIXER 1,Inlet,1
 Non-Parent Node Connection,NODE 2304,AIRLOOPHVAC:ZONEMIXER,AIR LOOP HVAC ZONE MIXER 1,Inlet,1
 Non-Parent Node Connection,NODE 2312,AIRLOOPHVAC:ZONEMIXER,AIR LOOP HVAC ZONE MIXER 1,Inlet,1
 Non-Parent Node Connection,NODE 2320,AIRLOOPHVAC:ZONEMIXER,AIR LOOP HVAC ZONE MIXER 1,Inlet,1
 Non-Parent Node Connection,NODE 2328,AIRLOOPHVAC:ZONEMIXER,AIR LOOP HVAC ZONE MIXER 1,Inlet,1
 Non-Parent Node Connection,NODE 2336,AIRLOOPHVAC:ZONEMIXER,AIR LOOP HVAC ZONE MIXER 1,Inlet,1
 Non-Parent Node Connection,NODE 2344,AIRLOOPHVAC:ZONEMIXER,AIR LOOP HVAC ZONE MIXER 1,Inlet,1
 Non-Parent Node Connection,NODE 2352,AIRLOOPHVAC:ZONEMIXER,AIR LOOP HVAC ZONE MIXER 1,Inlet,1
 Non-Parent Node Connection,NODE 2360,AIRLOOPHVAC:ZONEMIXER,AIR LOOP HVAC ZONE MIXER 1,Inlet,1
 Non-Parent Node Connection,NODE 2368,AIRLOOPHVAC:ZONEMIXER,AIR LOOP HVAC ZONE MIXER 1,Inlet,1
 Non-Parent Node Connection,NODE 2376,AIRLOOPHVAC:ZONEMIXER,AIR LOOP HVAC ZONE MIXER 1,Inlet,1
 Non-Parent Node Connection,NODE 2384,AIRLOOPHVAC:ZONEMIXER,AIR LOOP HVAC ZONE MIXER 1,Inlet,1
 Non-Parent Node Connection,NODE 2392,AIRLOOPHVAC:ZONEMIXER,AIR LOOP HVAC ZONE MIXER 1,Inlet,1
 Non-Parent Node Connection,NODE 2400,AIRLOOPHVAC:ZONEMIXER,AIR LOOP HVAC ZONE MIXER 1,Inlet,1
 Non-Parent Node Connection,NODE 2408,AIRLOOPHVAC:ZONEMIXER,AIR LOOP HVAC ZONE MIXER 1,Inlet,1
 Non-Parent Node Connection,NODE 2416,AIRLOOPHVAC:ZONEMIXER,AIR LOOP HVAC ZONE MIXER 1,Inlet,1
 Non-Parent Node Connection,NODE 2424,AIRLOOPHVAC:ZONEMIXER,AIR LOOP HVAC ZONE MIXER 1,Inlet,1
 Non-Parent Node Connection,NODE 2432,AIRLOOPHVAC:ZONEMIXER,AIR LOOP HVAC ZONE MIXER 1,Inlet,1
 Non-Parent Node Connection,NODE 2440,AIRLOOPHVAC:ZONEMIXER,AIR LOOP HVAC ZONE MIXER 1,Inlet,1
 Non-Parent Node Connection,NODE 2448,AIRLOOPHVAC:ZONEMIXER,AIR LOOP HVAC ZONE MIXER 1,Inlet,1
 Non-Parent Node Connection,NODE 2456,AIRLOOPHVAC:ZONEMIXER,AIR LOOP HVAC ZONE MIXER 1,Inlet,1
 Non-Parent Node Connection,NODE 2464,AIRLOOPHVAC:ZONEMIXER,AIR LOOP HVAC ZONE MIXER 1,Inlet,1
 Non-Parent Node Connection,NODE 2472,AIRLOOPHVAC:ZONEMIXER,AIR LOOP HVAC ZONE MIXER 1,Inlet,1
 Non-Parent Node Connection,NODE 2480,AIRLOOPHVAC:ZONEMIXER,AIR LOOP HVAC ZONE MIXER 1,Inlet,1
 Non-Parent Node Connection,NODE 2488,AIRLOOPHVAC:ZONEMIXER,AIR LOOP HVAC ZONE MIXER 1,Inlet,1
 Non-Parent Node Connection,NODE 2496,AIRLOOPHVAC:ZONEMIXER,AIR LOOP HVAC ZONE MIXER 1,Inlet,1
 Non-Parent Node Connection,NODE 2504,AIRLOOPHVAC:ZONEMIXER,AIR LOOP HVAC ZONE MIXER 1,Inlet,1
 Non-Parent Node Connection,NODE 2512,AIRLOOPHVAC:ZONEMIXER,AIR LOOP HVAC ZONE MIXER 1,Inlet,1
 Non-Parent Node Connection,NODE 2520,AIRLOOPHVAC:ZONEMIXER,AIR LOOP HVAC ZONE MIXER 1,Inlet,1
 Non-Parent Node Connection,NODE 2528,AIRLOOPHVAC:ZONEMIXER,AIR LOOP HVAC ZONE MIXER 1,Inlet,1
 Non-Parent Node Connection,NODE 2536,AIRLOOPHVAC:ZONEMIXER,AIR LOOP HVAC ZONE MIXER 1,Inlet,1
 Non-Parent Node Connection,NODE 2544,AIRLOOPHVAC:ZONEMIXER,AIR LOOP HVAC ZONE MIXER 1,Inlet,1
 Non-Parent Node Connection,NODE 2552,AIRLOOPHVAC:ZONEMIXER,AIR LOOP HVAC ZONE MIXER 1,Inlet,1
 Non-Parent Node Connection,NODE 2560,AIRLOOPHVAC:ZONEMIXER,AIR LOOP HVAC ZONE MIXER 1,Inlet,1
 Non-Parent Node Connection,NODE 2568,AIRLOOPHVAC:ZONEMIXER,AIR LOOP HVAC ZONE MIXER 1,Inlet,1
 Non-Parent Node Connection,NODE 2576,AIRLOOPHVAC:ZONEMIXER,AIR LOOP HVAC ZONE MIXER 1,Inlet,1
 Non-Parent Node Connection,NODE 2584,AIRLOOPHVAC:ZONEMIXER,AIR LOOP HVAC ZONE MIXER 1,Inlet,1
 Non-Parent Node Connection,NODE 2592,AIRLOOPHVAC:ZONEMIXER,AIR LOOP HVAC ZONE MIXER 1,Inlet,1
 Non-Parent Node Connection,NODE 2600,AIRLOOPHVAC:ZONEMIXER,AIR LOOP HVAC ZONE MIXER 1,Inlet,1
 Non-Parent Node Connection,NODE 2608,AIRLOOPHVAC:ZONEMIXER,AIR LOOP HVAC ZONE MIXER 1,Inlet,1
 Non-Parent Node Connection,NODE 2616,AIRLOOPHVAC:ZONEMIXER,AIR LOOP HVAC ZONE MIXER 1,Inlet,1
 Non-Parent Node Connection,NODE 2624,AIRLOOPHVAC:ZONEMIXER,AIR LOOP HVAC ZONE MIXER 1,Inlet,1
 Non-Parent Node Connection,NODE 2632,AIRLOOPHVAC:ZONEMIXER,AIR LOOP HVAC ZONE MIXER 1,Inlet,1
 Non-Parent Node Connection,NODE 2640,AIRLOOPHVAC:ZONEMIXER,AIR LOOP HVAC ZONE MIXER 1,Inlet,1
 Non-Parent Node Connection,NODE 2648,AIRLOOPHVAC:ZONEMIXER,AIR LOOP HVAC ZONE MIXER 1,Inlet,1
 Non-Parent Node Connection,NODE 2656,AIRLOOPHVAC:ZONEMIXER,AIR LOOP HVAC ZONE MIXER 1,Inlet,1
 Non-Parent Node Connection,NODE 2666,AIRLOOPHVAC:ZONEMIXER,AIR LOOP HVAC ZONE MIXER 1,Inlet,1
 Non-Parent Node Connection,NODE 2674,AIRLOOPHVAC:ZONEMIXER,AIR LOOP HVAC ZONE MIXER 1,Inlet,1
 Non-Parent Node Connection,NODE 2682,AIRLOOPHVAC:ZONEMIXER,AIR LOOP HVAC ZONE MIXER 1,Inlet,1
 Non-Parent Node Connection,NODE 2690,AIRLOOPHVAC:ZONEMIXER,AIR LOOP HVAC ZONE MIXER 1,Inlet,1
 Non-Parent Node Connection,NODE 2698,AIRLOOPHVAC:ZONEMIXER,AIR LOOP HVAC ZONE MIXER 1,Inlet,1
 Non-Parent Node Connection,NODE 2708,AIRLOOPHVAC:ZONEMIXER,AIR LOOP HVAC ZONE MIXER 1,Inlet,1
 Non-Parent Node Connection,NODE 2716,AIRLOOPHVAC:ZONEMIXER,AIR LOOP HVAC ZONE MIXER 1,Inlet,1
 Non-Parent Node Connection,NODE 2724,AIRLOOPHVAC:ZONEMIXER,AIR LOOP HVAC ZONE MIXER 1,Inlet,1
 Non-Parent Node Connection,NODE 2732,AIRLOOPHVAC:ZONEMIXER,AIR LOOP HVAC ZONE MIXER 1,Inlet,1
 Non-Parent Node Connection,NODE 2740,AIRLOOPHVAC:ZONEMIXER,AIR LOOP HVAC ZONE MIXER 1,Inlet,1
 Non-Parent Node Connection,NODE 2748,AIRLOOPHVAC:ZONEMIXER,AIR LOOP HVAC ZONE MIXER 1,Inlet,1
 Non-Parent Node Connection,NODE 2756,AIRLOOPHVAC:ZONEMIXER,AIR LOOP HVAC ZONE MIXER 1,Inlet,1
 Non-Parent Node Connection,NODE 2764,AIRLOOPHVAC:ZONEMIXER,AIR LOOP HVAC ZONE MIXER 1,Inlet,1
 Non-Parent Node Connection,NODE 2772,AIRLOOPHVAC:ZONEMIXER,AIR LOOP HVAC ZONE MIXER 1,Inlet,1
 Non-Parent Node Connection,NODE 2780,AIRLOOPHVAC:ZONEMIXER,AIR LOOP HVAC ZONE MIXER 1,Inlet,1
 Non-Parent Node Connection,NODE 2788,AIRLOOPHVAC:ZONEMIXER,AIR LOOP HVAC ZONE MIXER 1,Inlet,1
 Non-Parent Node Connection,NODE 2796,AIRLOOPHVAC:ZONEMIXER,AIR LOOP HVAC ZONE MIXER 1,Inlet,1
 Non-Parent Node Connection,NODE 2806,AIRLOOPHVAC:ZONEMIXER,AIR LOOP HVAC ZONE MIXER 1,Inlet,1
 Non-Parent Node Connection,NODE 2814,AIRLOOPHVAC:ZONEMIXER,AIR LOOP HVAC ZONE MIXER 1,Inlet,1
 Non-Parent Node Connection,NODE 2824,AIRLOOPHVAC:ZONEMIXER,AIR LOOP HVAC ZONE MIXER 1,Inlet,1
 Non-Parent Node Connection,NODE 2832,AIRLOOPHVAC:ZONEMIXER,AIR LOOP HVAC ZONE MIXER 1,Inlet,1
 Non-Parent Node Connection,NODE 2840,AIRLOOPHVAC:ZONEMIXER,AIR LOOP HVAC ZONE MIXER 1,Inlet,1
 Non-Parent Node Connection,NODE 2848,AIRLOOPHVAC:ZONEMIXER,AIR LOOP HVAC ZONE MIXER 1,Inlet,1
 Non-Parent Node Connection,NODE 2856,AIRLOOPHVAC:ZONEMIXER,AIR LOOP HVAC ZONE MIXER 1,Inlet,1
 Non-Parent Node Connection,NODE 2864,AIRLOOPHVAC:ZONEMIXER,AIR LOOP HVAC ZONE MIXER 1,Inlet,1
 Non-Parent Node Connection,NODE 2872,AIRLOOPHVAC:ZONEMIXER,AIR LOOP HVAC ZONE MIXER 1,Inlet,1
 Non-Parent Node Connection,NODE 2880,AIRLOOPHVAC:ZONEMIXER,AIR LOOP HVAC ZONE MIXER 1,Inlet,1
 Non-Parent Node Connection,NODE 2888,AIRLOOPHVAC:ZONEMIXER,AIR LOOP HVAC ZONE MIXER 1,Inlet,1
 Non-Parent Node Connection,NODE 2896,AIRLOOPHVAC:ZONEMIXER,AIR LOOP HVAC ZONE MIXER 1,Inlet,1
 Non-Parent Node Connection,NODE 2904,AIRLOOPHVAC:ZONEMIXER,AIR LOOP HVAC ZONE MIXER 1,Inlet,1
 Non-Parent Node Connection,NODE 2912,AIRLOOPHVAC:ZONEMIXER,AIR LOOP HVAC ZONE MIXER 1,Inlet,1
 Non-Parent Node Connection,NODE 2920,AIRLOOPHVAC:ZONEMIXER,AIR LOOP HVAC ZONE MIXER 1,Inlet,1
 Non-Parent Node Connection,NODE 2928,AIRLOOPHVAC:ZONEMIXER,AIR LOOP HVAC ZONE MIXER 1,Inlet,1
 Non-Parent Node Connection,NODE 2936,AIRLOOPHVAC:ZONEMIXER,AIR LOOP HVAC ZONE MIXER 1,Inlet,1
 Non-Parent Node Connection,NODE 2944,AIRLOOPHVAC:ZONEMIXER,AIR LOOP HVAC ZONE MIXER 1,Inlet,1
 Non-Parent Node Connection,NODE 17,CONTROLLER:OUTDOORAIR,OACONTROLLER_\{11251\},Sensor,1
 Non-Parent Node Connection,NODE 14,CONTROLLER:OUTDOORAIR,OACONTROLLER_\{11251\},Actuator,1
 Non-Parent Node Connection,NODE 15,CONTROLLER:OUTDOORAIR,OACONTROLLER_\{11251\},Actuator,1
 Non-Parent Node Connection,NODE 9,CONTROLLER:OUTDOORAIR,OACONTROLLER_\{11251\},Sensor,1
 Non-Parent Node Connection,NODE 20,DUCT,DUCT 1,Inlet,1
 Non-Parent Node Connection,NODE 10,DUCT,DUCT 1,Outlet,1
 Non-Parent Node Connection,CHILLED WATER LOOP CNDW SUPPLY INLET,HEADEREDPUMPS:VARIABLESPEED,CHILLED WATER LOOP CNDW SUPPLY PUMP,Inlet,1
 Non-Parent Node Connection,CHILLED WATER LOOP CNDW PUMP OUTLET,HEADEREDPUMPS:VARIABLESPEED,CHILLED WATER LOOP CNDW SUPPLY PUMP,Outlet,1
 Non-Parent Node Connection,CHILLED WATER LOOP CHW SUPPLY INLET,HEADEREDPUMPS:VARIABLESPEED,CHILLED WATER LOOP CHW SUPPLY PUMP,Inlet,1
 Non-Parent Node Connection,CHILLED WATER LOOP CHW PUMP OUTLET,HEADEREDPUMPS:VARIABLESPEED,CHILLED WATER LOOP CHW SUPPLY PUMP,Outlet,1
