Program Version,EnergyPlus, Version 24.2.0-94a887817b, YMD=2024.11.11 09:40,
   ************* Beginning Zone Sizing Calculations
   ** Warning ** ProcessScheduleInput: DecodeHHMMField, Invalid "until" field value is not a multiple of the minutes for each timestep: UNTIL: 09:35
   **   ~~~   ** Other errors may result. Occurred in Day Schedule=0912 CHILLER SETPOINT_dy_1
   ** Warning ** ProcessScheduleInput: DecodeHHMMField, Invalid "until" field value is not a multiple of the minutes for each timestep: UNTIL: 09:49
   **   ~~~   ** Other errors may result. Occurred in Day Schedule=0912 CHILLER SETPOINT_dy_1
   ** Warning ** ProcessScheduleInput: DecodeHHMMField, Invalid "until" field value is not a multiple of the minutes for each timestep: UNTIL: 10:04
   **   ~~~   ** Other errors may result. Occurred in Day Schedule=0912 CHILLER SETPOINT_dy_1
   ** Warning ** ProcessScheduleInput: DecodeHHMMField, Invalid "until" field value is not a multiple of the minutes for each timestep: UNTIL: 10:19
   **   ~~~   ** Other errors may result. Occurred in Day Schedule=0912 CHILLER SETPOINT_dy_1
   ** Warning ** ProcessScheduleInput: DecodeHHMMField, Invalid "until" field value is not a multiple of the minutes for each timestep: UNTIL: 10:33
   **   ~~~   ** Other errors may result. Occurred in Day Schedule=0912 CHILLER SETPOINT_dy_1
   ** Warning ** ProcessScheduleInput: DecodeHHMMField, Invalid "until" field value is not a multiple of the minutes for each timestep: UNTIL: 10:49
   **   ~~~   ** Other errors may result. Occurred in Day Schedule=0912 CHILLER SETPOINT_dy_1
   ** Warning ** ProcessScheduleInput: DecodeHHMMField, Invalid "until" field value is not a multiple of the minutes for each timestep: UNTIL: 11:19
   **   ~~~   ** Other errors may result. Occurred in Day Schedule=0912 CHILLER SETPOINT_dy_1
   ** Warning ** ProcessScheduleInput: DecodeHHMMField, Invalid "until" field value is not a multiple of the minutes for each timestep: UNTIL: 11:34
   **   ~~~   ** Other errors may result. Occurred in Day Schedule=0912 CHILLER SETPOINT_dy_1
   ** Warning ** ProcessScheduleInput: DecodeHHMMField, Invalid "until" field value is not a multiple of the minutes for each timestep: UNTIL: 11:49
   **   ~~~   ** Other errors may result. Occurred in Day Schedule=0912 CHILLER SETPOINT_dy_1
   ** Warning ** ProcessScheduleInput: DecodeHHMMField, Invalid "until" field value is not a multiple of the minutes for each timestep: UNTIL: 12:20
   **   ~~~   ** Other errors may result. Occurred in Day Schedule=0912 CHILLER SETPOINT_dy_1
   ** Warning ** ProcessScheduleInput: DecodeHHMMField, Invalid "until" field value is not a multiple of the minutes for each timestep: UNTIL: 12:35
   **   ~~~   ** Other errors may result. Occurred in Day Schedule=0912 CHILLER SETPOINT_dy_1
   ** Warning ** ProcessScheduleInput: DecodeHHMMField, Invalid "until" field value is not a multiple of the minutes for each timestep: UNTIL: 12:50
   **   ~~~   ** Other errors may result. Occurred in Day Schedule=0912 CHILLER SETPOINT_dy_1
   ** Warning ** ProcessScheduleInput: DecodeHHMMField, Invalid "until" field value is not a multiple of the minutes for each timestep: UNTIL: 13:49
   **   ~~~   ** Other errors may result. Occurred in Day Schedule=0912 CHILLER SETPOINT_dy_1
   ** Warning ** ProcessScheduleInput: DecodeHHMMField, Invalid "until" field value is not a multiple of the minutes for each timestep: UNTIL: 14:05
   **   ~~~   ** Other errors may result. Occurred in Day Schedule=0912 CHILLER SETPOINT_dy_1
   ** Warning ** ProcessScheduleInput: DecodeHHMMField, Invalid "until" field value is not a multiple of the minutes for each timestep: UNTIL: 14:20
   **   ~~~   ** Other errors may result. Occurred in Day Schedule=0912 CHILLER SETPOINT_dy_1
   ** Warning ** ProcessScheduleInput: DecodeHHMMField, Invalid "until" field value is not a multiple of the minutes for each timestep: UNTIL: 14:50
   **   ~~~   ** Other errors may result. Occurred in Day Schedule=0912 CHILLER SETPOINT_dy_1
   ** Warning ** ProcessScheduleInput: DecodeHHMMField, Invalid "until" field value is not a multiple of the minutes for each timestep: UNTIL: 15:20
   **   ~~~   ** Other errors may result. Occurred in Day Schedule=0912 CHILLER SETPOINT_dy_1
   ** Warning ** ProcessScheduleInput: DecodeHHMMField, Invalid "until" field value is not a multiple of the minutes for each timestep: UNTIL: 15:35
   **   ~~~   ** Other errors may result. Occurred in Day Schedule=0912 CHILLER SETPOINT_dy_1
   ** Warning ** ProcessScheduleInput: DecodeHHMMField, Invalid "until" field value is not a multiple of the minutes for each timestep: UNTIL: 15:51
   **   ~~~   ** Other errors may result. Occurred in Day Schedule=0912 CHILLER SETPOINT_dy_1
   ** Warning ** ProcessScheduleInput: DecodeHHMMField, Invalid "until" field value is not a multiple of the minutes for each timestep: UNTIL: 16:06
   **   ~~~   ** Other errors may result. Occurred in Day Schedule=0912 CHILLER SETPOINT_dy_1
   ** Warning ** ProcessScheduleInput: DecodeHHMMField, Invalid "until" field value is not a multiple of the minutes for each timestep: UNTIL: 16:36
   **   ~~~   ** Other errors may result. Occurred in Day Schedule=0912 CHILLER SETPOINT_dy_1
   ** Warning ** ProcessScheduleInput: DecodeHHMMField, Invalid "until" field value is not a multiple of the minutes for each timestep: UNTIL: 16:51
   **   ~~~   ** Other errors may result. Occurred in Day Schedule=0912 CHILLER SETPOINT_dy_1
   ** Warning ** ProcessScheduleInput: DecodeHHMMField, Invalid "until" field value is not a multiple of the minutes for each timestep: UNTIL: 17:21
   **   ~~~   ** Other errors may result. Occurred in Day Schedule=0912 CHILLER SETPOINT_dy_1
   ** Warning ** ProcessScheduleInput: DecodeHHMMField, Invalid "until" field value is not a multiple of the minutes for each timestep: UNTIL: 17:36
   **   ~~~   ** Other errors may result. Occurred in Day Schedule=0912 CHILLER SETPOINT_dy_1
   ** Warning ** ProcessScheduleInput: DecodeHHMMField, Invalid "until" field value is not a multiple of the minutes for each timestep: UNTIL: 17:51
   **   ~~~   ** Other errors may result. Occurred in Day Schedule=0912 CHILLER SETPOINT_dy_1
   ** Warning ** ProcessScheduleInput: DecodeHHMMField, Invalid "until" field value is not a multiple of the minutes for each timestep: UNTIL: 18:21
   **   ~~~   ** Other errors may result. Occurred in Day Schedule=0912 CHILLER SETPOINT_dy_1
   ** Warning ** ProcessScheduleInput: DecodeHHMMField, Invalid "until" field value is not a multiple of the minutes for each timestep: UNTIL: 18:36
   **   ~~~   ** Other errors may result. Occurred in Day Schedule=0912 CHILLER SETPOINT_dy_1
   ** Warning ** ProcessScheduleInput: DecodeHHMMField, Invalid "until" field value is not a multiple of the minutes for each timestep: UNTIL: 18:51
   **   ~~~   ** Other errors may result. Occurred in Day Schedule=0912 CHILLER SETPOINT_dy_1
   ** Warning ** ProcessScheduleInput: DecodeHHMMField, Invalid "until" field value is not a multiple of the minutes for each timestep: UNTIL: 19:06
   **   ~~~   ** Other errors may result. Occurred in Day Schedule=0912 CHILLER SETPOINT_dy_1
   ** Warning ** ProcessScheduleInput: DecodeHHMMField, Invalid "until" field value is not a multiple of the minutes for each timestep: UNTIL: 19:21
   **   ~~~   ** Other errors may result. Occurred in Day Schedule=0912 CHILLER SETPOINT_dy_1
   ** Warning ** ProcessScheduleInput: DecodeHHMMField, Invalid "until" field value is not a multiple of the minutes for each timestep: UNTIL: 19:52
   **   ~~~   ** Other errors may result. Occurred in Day Schedule=0912 CHILLER SETPOINT_dy_1
   ** Warning ** ProcessScheduleInput: DecodeHHMMField, Invalid "until" field value is not a multiple of the minutes for each timestep: UNTIL: 20:21
   **   ~~~   ** Other errors may result. Occurred in Day Schedule=0912 CHILLER SETPOINT_dy_1
   ** Warning ** ProcessScheduleInput: DecodeHHMMField, Invalid "until" field value is not a multiple of the minutes for each timestep: UNTIL: 20:37
   **   ~~~   ** Other errors may result. Occurred in Day Schedule=0912 CHILLER SETPOINT_dy_1
   ** Warning ** ProcessScheduleInput: DecodeHHMMField, Invalid "until" field value is not a multiple of the minutes for each timestep: UNTIL: 09:32
   **   ~~~   ** Other errors may result. Occurred in Day Schedule=0925 CHILLER SETPOINT_dy_1
   ** Warning ** ProcessScheduleInput: DecodeHHMMField, Invalid "until" field value is not a multiple of the minutes for each timestep: UNTIL: 09:56
   **   ~~~   ** Other errors may result. Occurred in Day Schedule=0925 CHILLER SETPOINT_dy_1
   ** Warning ** ProcessScheduleInput: DecodeHHMMField, Invalid "until" field value is not a multiple of the minutes for each timestep: UNTIL: 10:02
   **   ~~~   ** Other errors may result. Occurred in Day Schedule=0925 CHILLER SETPOINT_dy_1
   ** Warning ** ProcessScheduleInput: DecodeHHMMField, Invalid "until" field value is not a multiple of the minutes for each timestep: UNTIL: 10:18
   **   ~~~   ** Other errors may result. Occurred in Day Schedule=0925 CHILLER SETPOINT_dy_1
   ** Warning ** ProcessScheduleInput: DecodeHHMMField, Invalid "until" field value is not a multiple of the minutes for each timestep: UNTIL: 16:06
   **   ~~~   ** Other errors may result. Occurred in Day Schedule=0925 CHILLER SETPOINT_dy_1
   ** Warning ** ProcessScheduleInput: DecodeHHMMField, Invalid "until" field value is not a multiple of the minutes for each timestep: UNTIL: 16:26
   **   ~~~   ** Other errors may result. Occurred in Day Schedule=0925 CHILLER SETPOINT_dy_1
   ** Warning ** ProcessScheduleInput: DecodeHHMMField, Invalid "until" field value is not a multiple of the minutes for each timestep: UNTIL: 18:33
   **   ~~~   ** Other errors may result. Occurred in Day Schedule=0925 CHILLER SETPOINT_dy_1
   ** Warning ** ProcessScheduleInput: DecodeHHMMField, Invalid "until" field value is not a multiple of the minutes for each timestep: UNTIL: 18:56
   **   ~~~   ** Other errors may result. Occurred in Day Schedule=0925 CHILLER SETPOINT_dy_1
   ** Warning ** ProcessScheduleInput: DecodeHHMMField, Invalid "until" field value is not a multiple of the minutes for each timestep: UNTIL: 19:26
   **   ~~~   ** Other errors may result. Occurred in Day Schedule=0925 CHILLER SETPOINT_dy_1
   ** Warning ** ProcessScheduleInput: DecodeHHMMField, Invalid "until" field value is not a multiple of the minutes for each timestep: UNTIL: 19:36
   **   ~~~   ** Other errors may result. Occurred in Day Schedule=0925 CHILLER SETPOINT_dy_1
   ** Warning ** ProcessScheduleInput: DecodeHHMMField, Invalid "until" field value is not a multiple of the minutes for each timestep: UNTIL: 19:55
   **   ~~~   ** Other errors may result. Occurred in Day Schedule=0925 CHILLER SETPOINT_dy_1
   ** Warning ** ProcessScheduleInput: DecodeHHMMField, Invalid "until" field value is not a multiple of the minutes for each timestep: UNTIL: 20:05
   **   ~~~   ** Other errors may result. Occurred in Day Schedule=0925 CHILLER SETPOINT_dy_1
   ** Warning ** ProcessScheduleInput: DecodeHHMMField, Invalid "until" field value is not a multiple of the minutes for each timestep: UNTIL: 20:26
   **   ~~~   ** Other errors may result. Occurred in Day Schedule=0925 CHILLER SETPOINT_dy_1
   ** Warning ** ProcessScheduleInput: DecodeHHMMField, Invalid "until" field value is not a multiple of the minutes for each timestep: UNTIL: 20:36
   **   ~~~   ** Other errors may result. Occurred in Day Schedule=0925 CHILLER SETPOINT_dy_1
   ** Warning ** ProcessScheduleInput: DecodeHHMMField, Invalid "until" field value is not a multiple of the minutes for each timestep: UNTIL: 09:36
   **   ~~~   ** Other errors may result. Occurred in Day Schedule=0927 CHILLER SETPOINT_dy_1
   ** Warning ** ProcessScheduleInput: DecodeHHMMField, Invalid "until" field value is not a multiple of the minutes for each timestep: UNTIL: 09:46
   **   ~~~   ** Other errors may result. Occurred in Day Schedule=0927 CHILLER SETPOINT_dy_1
   ** Warning ** ProcessScheduleInput: DecodeHHMMField, Invalid "until" field value is not a multiple of the minutes for each timestep: UNTIL: 10:01
   **   ~~~   ** Other errors may result. Occurred in Day Schedule=0927 CHILLER SETPOINT_dy_1
   ** Warning ** ProcessScheduleInput: DecodeHHMMField, Invalid "until" field value is not a multiple of the minutes for each timestep: UNTIL: 10:21
   **   ~~~   ** Other errors may result. Occurred in Day Schedule=0927 CHILLER SETPOINT_dy_1
   ** Warning ** ProcessScheduleInput: DecodeHHMMField, Invalid "until" field value is not a multiple of the minutes for each timestep: UNTIL: 11:32
   **   ~~~   ** Other errors may result. Occurred in Day Schedule=0927 CHILLER SETPOINT_dy_1
   ** Warning ** ProcessScheduleInput: DecodeHHMMField, Invalid "until" field value is not a multiple of the minutes for each timestep: UNTIL: 11:51
   **   ~~~   ** Other errors may result. Occurred in Day Schedule=0927 CHILLER SETPOINT_dy_1
   ** Warning ** ProcessScheduleInput: DecodeHHMMField, Invalid "until" field value is not a multiple of the minutes for each timestep: UNTIL: 12:21
   **   ~~~   ** Other errors may result. Occurred in Day Schedule=0927 CHILLER SETPOINT_dy_1
   ** Warning ** ProcessScheduleInput: DecodeHHMMField, Invalid "until" field value is not a multiple of the minutes for each timestep: UNTIL: 15:31
   **   ~~~   ** Other errors may result. Occurred in Day Schedule=0927 CHILLER SETPOINT_dy_1
   ** Warning ** ProcessScheduleInput: DecodeHHMMField, Invalid "until" field value is not a multiple of the minutes for each timestep: UNTIL: 15:52
   **   ~~~   ** Other errors may result. Occurred in Day Schedule=0927 CHILLER SETPOINT_dy_1
   ** Warning ** ProcessScheduleInput: DecodeHHMMField, Invalid "until" field value is not a multiple of the minutes for each timestep: UNTIL: 16:01
   **   ~~~   ** Other errors may result. Occurred in Day Schedule=0927 CHILLER SETPOINT_dy_1
   ** Warning ** ProcessScheduleInput: DecodeHHMMField, Invalid "until" field value is not a multiple of the minutes for each timestep: UNTIL: 16:21
   **   ~~~   ** Other errors may result. Occurred in Day Schedule=0927 CHILLER SETPOINT_dy_1
   ** Warning ** ProcessScheduleInput: DecodeHHMMField, Invalid "until" field value is not a multiple of the minutes for each timestep: UNTIL: 16:31
   **   ~~~   ** Other errors may result. Occurred in Day Schedule=0927 CHILLER SETPOINT_dy_1
   ** Warning ** ProcessScheduleInput: DecodeHHMMField, Invalid "until" field value is not a multiple of the minutes for each timestep: UNTIL: 16:51
   **   ~~~   ** Other errors may result. Occurred in Day Schedule=0927 CHILLER SETPOINT_dy_1
   ** Warning ** ProcessScheduleInput: DecodeHHMMField, Invalid "until" field value is not a multiple of the minutes for each timestep: UNTIL: 17:01
   **   ~~~   ** Other errors may result. Occurred in Day Schedule=0927 CHILLER SETPOINT_dy_1
   ** Warning ** ProcessScheduleInput: DecodeHHMMField, Invalid "until" field value is not a multiple of the minutes for each timestep: UNTIL: 17:20
   **   ~~~   ** Other errors may result. Occurred in Day Schedule=0927 CHILLER SETPOINT_dy_1
   ** Warning ** ProcessScheduleInput: DecodeHHMMField, Invalid "until" field value is not a multiple of the minutes for each timestep: UNTIL: 18:21
   **   ~~~   ** Other errors may result. Occurred in Day Schedule=0927 CHILLER SETPOINT_dy_1
   ** Warning ** ProcessScheduleInput: DecodeHHMMField, Invalid "until" field value is not a multiple of the minutes for each timestep: UNTIL: 18:32
   **   ~~~   ** Other errors may result. Occurred in Day Schedule=0927 CHILLER SETPOINT_dy_1
   ** Warning ** ProcessScheduleInput: DecodeHHMMField, Invalid "until" field value is not a multiple of the minutes for each timestep: UNTIL: 18:47
   **   ~~~   ** Other errors may result. Occurred in Day Schedule=0927 CHILLER SETPOINT_dy_1
   ** Warning ** ProcessScheduleInput: DecodeHHMMField, Invalid "until" field value is not a multiple of the minutes for each timestep: UNTIL: 19:06
   **   ~~~   ** Other errors may result. Occurred in Day Schedule=0927 CHILLER SETPOINT_dy_1
   ** Warning ** ProcessScheduleInput: DecodeHHMMField, Invalid "until" field value is not a multiple of the minutes for each timestep: UNTIL: 19:17
   **   ~~~   ** Other errors may result. Occurred in Day Schedule=0927 CHILLER SETPOINT_dy_1
   ** Warning ** ProcessScheduleInput: DecodeHHMMField, Invalid "until" field value is not a multiple of the minutes for each timestep: UNTIL: 19:26
   **   ~~~   ** Other errors may result. Occurred in Day Schedule=0927 CHILLER SETPOINT_dy_1
   ** Warning ** ProcessScheduleInput: DecodeHHMMField, Invalid "until" field value is not a multiple of the minutes for each timestep: UNTIL: 19:35
   **   ~~~   ** Other errors may result. Occurred in Day Schedule=0927 CHILLER SETPOINT_dy_1
   ** Warning ** ProcessScheduleInput: DecodeHHMMField, Invalid "until" field value is not a multiple of the minutes for each timestep: UNTIL: 19:46
   **   ~~~   ** Other errors may result. Occurred in Day Schedule=0927 CHILLER SETPOINT_dy_1
   ** Warning ** ProcessScheduleInput: DecodeHHMMField, Invalid "until" field value is not a multiple of the minutes for each timestep: UNTIL: 20:06
   **   ~~~   ** Other errors may result. Occurred in Day Schedule=0927 CHILLER SETPOINT_dy_1
   ** Warning ** ProcessScheduleInput: DecodeHHMMField, Invalid "until" field value is not a multiple of the minutes for each timestep: UNTIL: 09:36
   **   ~~~   ** Other errors may result. Occurred in Day Schedule=0926 CHILLER SETPOINT_dy_1
   ** Warning ** ProcessScheduleInput: DecodeHHMMField, Invalid "until" field value is not a multiple of the minutes for each timestep: UNTIL: 09:47
   **   ~~~   ** Other errors may result. Occurred in Day Schedule=0926 CHILLER SETPOINT_dy_1
   ** Warning ** ProcessScheduleInput: DecodeHHMMField, Invalid "until" field value is not a multiple of the minutes for each timestep: UNTIL: 10:05
   **   ~~~   ** Other errors may result. Occurred in Day Schedule=0926 CHILLER SETPOINT_dy_1
   ** Warning ** ProcessScheduleInput: DecodeHHMMField, Invalid "until" field value is not a multiple of the minutes for each timestep: UNTIL: 10:25
   **   ~~~   ** Other errors may result. Occurred in Day Schedule=0926 CHILLER SETPOINT_dy_1
   ** Warning ** ProcessScheduleInput: DecodeHHMMField, Invalid "until" field value is not a multiple of the minutes for each timestep: UNTIL: 10:56
   **   ~~~   ** Other errors may result. Occurred in Day Schedule=0926 CHILLER SETPOINT_dy_1
   ** Warning ** ProcessScheduleInput: DecodeHHMMField, Invalid "until" field value is not a multiple of the minutes for each timestep: UNTIL: 15:36
   **   ~~~   ** Other errors may result. Occurred in Day Schedule=0926 CHILLER SETPOINT_dy_1
   ** Warning ** ProcessScheduleInput: DecodeHHMMField, Invalid "until" field value is not a multiple of the minutes for each timestep: UNTIL: 15:56
   **   ~~~   ** Other errors may result. Occurred in Day Schedule=0926 CHILLER SETPOINT_dy_1
   ** Warning ** ProcessScheduleInput: DecodeHHMMField, Invalid "until" field value is not a multiple of the minutes for each timestep: UNTIL: 16:06
   **   ~~~   ** Other errors may result. Occurred in Day Schedule=0926 CHILLER SETPOINT_dy_1
   ** Warning ** ProcessScheduleInput: DecodeHHMMField, Invalid "until" field value is not a multiple of the minutes for each timestep: UNTIL: 16:25
   **   ~~~   ** Other errors may result. Occurred in Day Schedule=0926 CHILLER SETPOINT_dy_1
   ** Warning ** ProcessScheduleInput: DecodeHHMMField, Invalid "until" field value is not a multiple of the minutes for each timestep: UNTIL: 16:36
   **   ~~~   ** Other errors may result. Occurred in Day Schedule=0926 CHILLER SETPOINT_dy_1
   ** Warning ** ProcessScheduleInput: DecodeHHMMField, Invalid "until" field value is not a multiple of the minutes for each timestep: UNTIL: 16:56
   **   ~~~   ** Other errors may result. Occurred in Day Schedule=0926 CHILLER SETPOINT_dy_1
   ** Warning ** ProcessScheduleInput: DecodeHHMMField, Invalid "until" field value is not a multiple of the minutes for each timestep: UNTIL: 17:06
   **   ~~~   ** Other errors may result. Occurred in Day Schedule=0926 CHILLER SETPOINT_dy_1
   ** Warning ** ProcessScheduleInput: DecodeHHMMField, Invalid "until" field value is not a multiple of the minutes for each timestep: UNTIL: 17:25
   **   ~~~   ** Other errors may result. Occurred in Day Schedule=0926 CHILLER SETPOINT_dy_1
   ** Warning ** ProcessScheduleInput: DecodeHHMMField, Invalid "until" field value is not a multiple of the minutes for each timestep: UNTIL: 18:36
   **   ~~~   ** Other errors may result. Occurred in Day Schedule=0926 CHILLER SETPOINT_dy_1
   ** Warning ** ProcessScheduleInput: DecodeHHMMField, Invalid "until" field value is not a multiple of the minutes for each timestep: UNTIL: 18:47
   **   ~~~   ** Other errors may result. Occurred in Day Schedule=0926 CHILLER SETPOINT_dy_1
   ** Warning ** ProcessScheduleInput: DecodeHHMMField, Invalid "until" field value is not a multiple of the minutes for each timestep: UNTIL: 19:06
   **   ~~~   ** Other errors may result. Occurred in Day Schedule=0926 CHILLER SETPOINT_dy_1
   ** Warning ** ProcessScheduleInput: DecodeHHMMField, Invalid "until" field value is not a multiple of the minutes for each timestep: UNTIL: 19:26
   **   ~~~   ** Other errors may result. Occurred in Day Schedule=0926 CHILLER SETPOINT_dy_1
   ** Warning ** ProcessScheduleInput: DecodeHHMMField, Invalid "until" field value is not a multiple of the minutes for each timestep: UNTIL: 19:36
   **   ~~~   ** Other errors may result. Occurred in Day Schedule=0926 CHILLER SETPOINT_dy_1
   ** Warning ** ProcessScheduleInput: DecodeHHMMField, Invalid "until" field value is not a multiple of the minutes for each timestep: UNTIL: 19:55
   **   ~~~   ** Other errors may result. Occurred in Day Schedule=0926 CHILLER SETPOINT_dy_1
   ** Warning ** ProcessScheduleInput: DecodeHHMMField, Invalid "until" field value is not a multiple of the minutes for each timestep: UNTIL: 20:05
   **   ~~~   ** Other errors may result. Occurred in Day Schedule=0926 CHILLER SETPOINT_dy_1
   ** Warning ** ProcessScheduleInput: DecodeHHMMField, Invalid "until" field value is not a multiple of the minutes for each timestep: UNTIL: 20:26
   **   ~~~   ** Other errors may result. Occurred in Day Schedule=0926 CHILLER SETPOINT_dy_1
   ** Warning ** ProcessScheduleInput: DecodeHHMMField, Invalid "until" field value is not a multiple of the minutes for each timestep: UNTIL: 20:32
   **   ~~~   ** Other errors may result. Occurred in Day Schedule=0926 CHILLER SETPOINT_dy_1
   ** Warning ** ProcessScheduleInput: DecodeHHMMField, Invalid "until" field value is not a multiple of the minutes for each timestep: UNTIL: 09:47
   **   ~~~   ** Other errors may result. Occurred in Day Schedule=0928 CHILLER SETPOINT_dy_1
   ** Warning ** ProcessScheduleInput: DecodeHHMMField, Invalid "until" field value is not a multiple of the minutes for each timestep: UNTIL: 09:57
   **   ~~~   ** Other errors may result. Occurred in Day Schedule=0928 CHILLER SETPOINT_dy_1
   ** Warning ** ProcessScheduleInput: DecodeHHMMField, Invalid "until" field value is not a multiple of the minutes for each timestep: UNTIL: 10:16
   **   ~~~   ** Other errors may result. Occurred in Day Schedule=0928 CHILLER SETPOINT_dy_1
   ** Warning ** ProcessScheduleInput: DecodeHHMMField, Invalid "until" field value is not a multiple of the minutes for each timestep: UNTIL: 10:21
   **   ~~~   ** Other errors may result. Occurred in Day Schedule=0928 CHILLER SETPOINT_dy_1
   ** Warning ** ProcessScheduleInput: DecodeHHMMField, Invalid "until" field value is not a multiple of the minutes for each timestep: UNTIL: 10:36
   **   ~~~   ** Other errors may result. Occurred in Day Schedule=0928 CHILLER SETPOINT_dy_1
   ** Warning ** ProcessScheduleInput: DecodeHHMMField, Invalid "until" field value is not a multiple of the minutes for each timestep: UNTIL: 11:57
   **   ~~~   ** Other errors may result. Occurred in Day Schedule=0928 CHILLER SETPOINT_dy_1
   ** Warning ** ProcessScheduleInput: DecodeHHMMField, Invalid "until" field value is not a multiple of the minutes for each timestep: UNTIL: 12:17
   **   ~~~   ** Other errors may result. Occurred in Day Schedule=0928 CHILLER SETPOINT_dy_1
   ** Warning ** ProcessScheduleInput: DecodeHHMMField, Invalid "until" field value is not a multiple of the minutes for each timestep: UNTIL: 12:27
   **   ~~~   ** Other errors may result. Occurred in Day Schedule=0928 CHILLER SETPOINT_dy_1
   ** Warning ** ProcessScheduleInput: DecodeHHMMField, Invalid "until" field value is not a multiple of the minutes for each timestep: UNTIL: 12:46
   **   ~~~   ** Other errors may result. Occurred in Day Schedule=0928 CHILLER SETPOINT_dy_1
   ** Warning ** ProcessScheduleInput: DecodeHHMMField, Invalid "until" field value is not a multiple of the minutes for each timestep: UNTIL: 13:26
   **   ~~~   ** Other errors may result. Occurred in Day Schedule=0928 CHILLER SETPOINT_dy_1
   ** Warning ** ProcessScheduleInput: DecodeHHMMField, Invalid "until" field value is not a multiple of the minutes for each timestep: UNTIL: 13:36
   **   ~~~   ** Other errors may result. Occurred in Day Schedule=0928 CHILLER SETPOINT_dy_1
   ** Warning ** ProcessScheduleInput: DecodeHHMMField, Invalid "until" field value is not a multiple of the minutes for each timestep: UNTIL: 13:57
   **   ~~~   ** Other errors may result. Occurred in Day Schedule=0928 CHILLER SETPOINT_dy_1
   ** Warning ** ProcessScheduleInput: DecodeHHMMField, Invalid "until" field value is not a multiple of the minutes for each timestep: UNTIL: 15:26
   **   ~~~   ** Other errors may result. Occurred in Day Schedule=0928 CHILLER SETPOINT_dy_1
   ** Warning ** ProcessScheduleInput: DecodeHHMMField, Invalid "until" field value is not a multiple of the minutes for each timestep: UNTIL: 15:37
   **   ~~~   ** Other errors may result. Occurred in Day Schedule=0928 CHILLER SETPOINT_dy_1
   ** Warning ** ProcessScheduleInput: DecodeHHMMField, Invalid "until" field value is not a multiple of the minutes for each timestep: UNTIL: 15:56
   **   ~~~   ** Other errors may result. Occurred in Day Schedule=0928 CHILLER SETPOINT_dy_1
   ** Warning ** ProcessScheduleInput: DecodeHHMMField, Invalid "until" field value is not a multiple of the minutes for each timestep: UNTIL: 16:17
   **   ~~~   ** Other errors may result. Occurred in Day Schedule=0928 CHILLER SETPOINT_dy_1
   ** Warning ** ProcessScheduleInput: DecodeHHMMField, Invalid "until" field value is not a multiple of the minutes for each timestep: UNTIL: 16:22
   **   ~~~   ** Other errors may result. Occurred in Day Schedule=0928 CHILLER SETPOINT_dy_1
   ** Warning ** ProcessScheduleInput: DecodeHHMMField, Invalid "until" field value is not a multiple of the minutes for each timestep: UNTIL: 16:37
   **   ~~~   ** Other errors may result. Occurred in Day Schedule=0928 CHILLER SETPOINT_dy_1
   ** Warning ** ProcessScheduleInput: DecodeHHMMField, Invalid "until" field value is not a multiple of the minutes for each timestep: UNTIL: 16:56
   **   ~~~   ** Other errors may result. Occurred in Day Schedule=0928 CHILLER SETPOINT_dy_1
   ** Warning ** ProcessScheduleInput: DecodeHHMMField, Invalid "until" field value is not a multiple of the minutes for each timestep: UNTIL: 17:17
   **   ~~~   ** Other errors may result. Occurred in Day Schedule=0928 CHILLER SETPOINT_dy_1
   ** Warning ** ProcessScheduleInput: DecodeHHMMField, Invalid "until" field value is not a multiple of the minutes for each timestep: UNTIL: 17:22
   **   ~~~   ** Other errors may result. Occurred in Day Schedule=0928 CHILLER SETPOINT_dy_1
   ** Warning ** ProcessScheduleInput: DecodeHHMMField, Invalid "until" field value is not a multiple of the minutes for each timestep: UNTIL: 18:46
   **   ~~~   ** Other errors may result. Occurred in Day Schedule=0928 CHILLER SETPOINT_dy_1
   ** Warning ** ProcessScheduleInput: DecodeHHMMField, Invalid "until" field value is not a multiple of the minutes for each timestep: UNTIL: 18:52
   **   ~~~   ** Other errors may result. Occurred in Day Schedule=0928 CHILLER SETPOINT_dy_1
   ** Warning ** ProcessScheduleInput: DecodeHHMMField, Invalid "until" field value is not a multiple of the minutes for each timestep: UNTIL: 19:17
   **   ~~~   ** Other errors may result. Occurred in Day Schedule=0928 CHILLER SETPOINT_dy_1
   ** Warning ** ProcessScheduleInput: DecodeHHMMField, Invalid "until" field value is not a multiple of the minutes for each timestep: UNTIL: 19:22
   **   ~~~   ** Other errors may result. Occurred in Day Schedule=0928 CHILLER SETPOINT_dy_1
   ** Warning ** ProcessScheduleInput: DecodeHHMMField, Invalid "until" field value is not a multiple of the minutes for each timestep: UNTIL: 19:37
   **   ~~~   ** Other errors may result. Occurred in Day Schedule=0928 CHILLER SETPOINT_dy_1
   ** Warning ** ProcessScheduleInput: DecodeHHMMField, Invalid "until" field value is not a multiple of the minutes for each timestep: UNTIL: 19:56
   **   ~~~   ** Other errors may result. Occurred in Day Schedule=0928 CHILLER SETPOINT_dy_1
   ** Warning ** ProcessScheduleInput: DecodeHHMMField, Invalid "until" field value is not a multiple of the minutes for each timestep: UNTIL: 20:16
   **   ~~~   ** Other errors may result. Occurred in Day Schedule=0928 CHILLER SETPOINT_dy_1
   ** Warning ** ProcessScheduleInput: DecodeHHMMField, Invalid "until" field value is not a multiple of the minutes for each timestep: UNTIL: 20:37
   **   ~~~   ** Other errors may result. Occurred in Day Schedule=0928 CHILLER SETPOINT_dy_1
   ** Warning ** ProcessScheduleInput: DecodeHHMMField, Invalid "until" field value is not a multiple of the minutes for each timestep: UNTIL: 13:50
   **   ~~~   ** Other errors may result. Occurred in Day Schedule=0925 MOER BASE CHILLER SETPOINT_dy_1
   ** Warning ** ProcessScheduleInput: DecodeHHMMField, Invalid "until" field value is not a multiple of the minutes for each timestep: UNTIL: 14:40
   **   ~~~   ** Other errors may result. Occurred in Day Schedule=0925 MOER BASE CHILLER SETPOINT_dy_1
   ** Warning ** ProcessScheduleInput: DecodeHHMMField, Invalid "until" field value is not a multiple of the minutes for each timestep: UNTIL: 15:05
   **   ~~~   ** Other errors may result. Occurred in Day Schedule=0925 MOER BASE CHILLER SETPOINT_dy_1
   ** Warning ** ProcessScheduleInput: DecodeHHMMField, Invalid "until" field value is not a multiple of the minutes for each timestep: UNTIL: 15:50
   **   ~~~   ** Other errors may result. Occurred in Day Schedule=0925 MOER BASE CHILLER SETPOINT_dy_1
   ** Warning ** ProcessScheduleInput: DecodeHHMMField, Invalid "until" field value is not a multiple of the minutes for each timestep: UNTIL: 16:10
   **   ~~~   ** Other errors may result. Occurred in Day Schedule=0925 MOER BASE CHILLER SETPOINT_dy_1
   ** Warning ** ProcessScheduleInput: DecodeHHMMField, Invalid "until" field value is not a multiple of the minutes for each timestep: UNTIL: 17:55
   **   ~~~   ** Other errors may result. Occurred in Day Schedule=0925 MOER BASE CHILLER SETPOINT_dy_1
   ** Warning ** ProcessScheduleInput: DecodeHHMMField, Invalid "until" field value is not a multiple of the minutes for each timestep: UNTIL: 18:20
   **   ~~~   ** Other errors may result. Occurred in Day Schedule=0925 MOER BASE CHILLER SETPOINT_dy_1
   ** Warning ** ProcessScheduleInput: DecodeHHMMField, Invalid "until" field value is not a multiple of the minutes for each timestep: UNTIL: 09:35
   **   ~~~   ** Other errors may result. Occurred in Day Schedule=0929 CHILLER SETPOINT_dy_1
   ** Warning ** ProcessScheduleInput: DecodeHHMMField, Invalid "until" field value is not a multiple of the minutes for each timestep: UNTIL: 09:50
   **   ~~~   ** Other errors may result. Occurred in Day Schedule=0929 CHILLER SETPOINT_dy_1
   ** Warning ** ProcessScheduleInput: DecodeHHMMField, Invalid "until" field value is not a multiple of the minutes for each timestep: UNTIL: 10:05
   **   ~~~   ** Other errors may result. Occurred in Day Schedule=0929 CHILLER SETPOINT_dy_1
   ** Warning ** ProcessScheduleInput: DecodeHHMMField, Invalid "until" field value is not a multiple of the minutes for each timestep: UNTIL: 10:20
   **   ~~~   ** Other errors may result. Occurred in Day Schedule=0929 CHILLER SETPOINT_dy_1
   ** Warning ** ProcessScheduleInput: DecodeHHMMField, Invalid "until" field value is not a multiple of the minutes for each timestep: UNTIL: 10:35
   **   ~~~   ** Other errors may result. Occurred in Day Schedule=0929 CHILLER SETPOINT_dy_1
   ** Warning ** ProcessScheduleInput: DecodeHHMMField, Invalid "until" field value is not a multiple of the minutes for each timestep: UNTIL: 10:50
   **   ~~~   ** Other errors may result. Occurred in Day Schedule=0929 CHILLER SETPOINT_dy_1
   ** Warning ** ProcessScheduleInput: DecodeHHMMField, Invalid "until" field value is not a multiple of the minutes for each timestep: UNTIL: 11:05
   **   ~~~   ** Other errors may result. Occurred in Day Schedule=0929 CHILLER SETPOINT_dy_1
   ** Warning ** ProcessScheduleInput: DecodeHHMMField, Invalid "until" field value is not a multiple of the minutes for each timestep: UNTIL: 11:20
   **   ~~~   ** Other errors may result. Occurred in Day Schedule=0929 CHILLER SETPOINT_dy_1
   ** Warning ** ProcessScheduleInput: DecodeHHMMField, Invalid "until" field value is not a multiple of the minutes for each timestep: UNTIL: 11:50
   **   ~~~   ** Other errors may result. Occurred in Day Schedule=0929 CHILLER SETPOINT_dy_1
   ** Warning ** ProcessScheduleInput: DecodeHHMMField, Invalid "until" field value is not a multiple of the minutes for each timestep: UNTIL: 12:05
   **   ~~~   ** Other errors may result. Occurred in Day Schedule=0929 CHILLER SETPOINT_dy_1
   ** Warning ** ProcessScheduleInput: DecodeHHMMField, Invalid "until" field value is not a multiple of the minutes for each timestep: UNTIL: 12:20
   **   ~~~   ** Other errors may result. Occurred in Day Schedule=0929 CHILLER SETPOINT_dy_1
   ** Warning ** ProcessScheduleInput: DecodeHHMMField, Invalid "until" field value is not a multiple of the minutes for each timestep: UNTIL: 12:35
   **   ~~~   ** Other errors may result. Occurred in Day Schedule=0929 CHILLER SETPOINT_dy_1
   ** Warning ** ProcessScheduleInput: DecodeHHMMField, Invalid "until" field value is not a multiple of the minutes for each timestep: UNTIL: 12:50
   **   ~~~   ** Other errors may result. Occurred in Day Schedule=0929 CHILLER SETPOINT_dy_1
   ** Warning ** ProcessScheduleInput: DecodeHHMMField, Invalid "until" field value is not a multiple of the minutes for each timestep: UNTIL: 13:05
   **   ~~~   ** Other errors may result. Occurred in Day Schedule=0929 CHILLER SETPOINT_dy_1
   ** Warning ** ProcessScheduleInput: DecodeHHMMField, Invalid "until" field value is not a multiple of the minutes for each timestep: UNTIL: 13:20
   **   ~~~   ** Other errors may result. Occurred in Day Schedule=0929 CHILLER SETPOINT_dy_1
   ** Warning ** ProcessScheduleInput: DecodeHHMMField, Invalid "until" field value is not a multiple of the minutes for each timestep: UNTIL: 13:35
   **   ~~~   ** Other errors may result. Occurred in Day Schedule=0929 CHILLER SETPOINT_dy_1
   ** Warning ** ProcessScheduleInput: DecodeHHMMField, Invalid "until" field value is not a multiple of the minutes for each timestep: UNTIL: 14:20
   **   ~~~   ** Other errors may result. Occurred in Day Schedule=0929 CHILLER SETPOINT_dy_1
   ** Warning ** ProcessScheduleInput: DecodeHHMMField, Invalid "until" field value is not a multiple of the minutes for each timestep: UNTIL: 14:35
   **   ~~~   ** Other errors may result. Occurred in Day Schedule=0929 CHILLER SETPOINT_dy_1
   ** Warning ** ProcessScheduleInput: DecodeHHMMField, Invalid "until" field value is not a multiple of the minutes for each timestep: UNTIL: 14:50
   **   ~~~   ** Other errors may result. Occurred in Day Schedule=0929 CHILLER SETPOINT_dy_1
   ** Warning ** ProcessScheduleInput: DecodeHHMMField, Invalid "until" field value is not a multiple of the minutes for each timestep: UNTIL: 15:05
   **   ~~~   ** Other errors may result. Occurred in Day Schedule=0929 CHILLER SETPOINT_dy_1
   ** Warning ** ProcessScheduleInput: DecodeHHMMField, Invalid "until" field value is not a multiple of the minutes for each timestep: UNTIL: 15:20
   **   ~~~   ** Other errors may result. Occurred in Day Schedule=0929 CHILLER SETPOINT_dy_1
   ** Warning ** ProcessScheduleInput: DecodeHHMMField, Invalid "until" field value is not a multiple of the minutes for each timestep: UNTIL: 15:35
   **   ~~~   ** Other errors may result. Occurred in Day Schedule=0929 CHILLER SETPOINT_dy_1
   ** Warning ** ProcessScheduleInput: DecodeHHMMField, Invalid "until" field value is not a multiple of the minutes for each timestep: UNTIL: 15:50
   **   ~~~   ** Other errors may result. Occurred in Day Schedule=0929 CHILLER SETPOINT_dy_1
   ** Warning ** ProcessScheduleInput: DecodeHHMMField, Invalid "until" field value is not a multiple of the minutes for each timestep: UNTIL: 16:05
   **   ~~~   ** Other errors may result. Occurred in Day Schedule=0929 CHILLER SETPOINT_dy_1
   ** Warning ** ProcessScheduleInput: DecodeHHMMField, Invalid "until" field value is not a multiple of the minutes for each timestep: UNTIL: 16:20
   **   ~~~   ** Other errors may result. Occurred in Day Schedule=0929 CHILLER SETPOINT_dy_1
   ** Warning ** ProcessScheduleInput: DecodeHHMMField, Invalid "until" field value is not a multiple of the minutes for each timestep: UNTIL: 16:35
   **   ~~~   ** Other errors may result. Occurred in Day Schedule=0929 CHILLER SETPOINT_dy_1
   ** Warning ** ProcessScheduleInput: DecodeHHMMField, Invalid "until" field value is not a multiple of the minutes for each timestep: UNTIL: 16:50
   **   ~~~   ** Other errors may result. Occurred in Day Schedule=0929 CHILLER SETPOINT_dy_1
   ** Warning ** ProcessScheduleInput: DecodeHHMMField, Invalid "until" field value is not a multiple of the minutes for each timestep: UNTIL: 17:05
   **   ~~~   ** Other errors may result. Occurred in Day Schedule=0929 CHILLER SETPOINT_dy_1
   ** Warning ** ProcessScheduleInput: DecodeHHMMField, Invalid "until" field value is not a multiple of the minutes for each timestep: UNTIL: 17:20
   **   ~~~   ** Other errors may result. Occurred in Day Schedule=0929 CHILLER SETPOINT_dy_1
   ** Warning ** ProcessScheduleInput: DecodeHHMMField, Invalid "until" field value is not a multiple of the minutes for each timestep: UNTIL: 18:35
   **   ~~~   ** Other errors may result. Occurred in Day Schedule=0929 CHILLER SETPOINT_dy_1
   ** Warning ** ProcessScheduleInput: DecodeHHMMField, Invalid "until" field value is not a multiple of the minutes for each timestep: UNTIL: 18:50
   **   ~~~   ** Other errors may result. Occurred in Day Schedule=0929 CHILLER SETPOINT_dy_1
   ** Warning ** ProcessScheduleInput: DecodeHHMMField, Invalid "until" field value is not a multiple of the minutes for each timestep: UNTIL: 19:05
   **   ~~~   ** Other errors may result. Occurred in Day Schedule=0929 CHILLER SETPOINT_dy_1
   ** Warning ** ProcessScheduleInput: DecodeHHMMField, Invalid "until" field value is not a multiple of the minutes for each timestep: UNTIL: 19:20
   **   ~~~   ** Other errors may result. Occurred in Day Schedule=0929 CHILLER SETPOINT_dy_1
   ** Warning ** ProcessScheduleInput: DecodeHHMMField, Invalid "until" field value is not a multiple of the minutes for each timestep: UNTIL: 20:35
   **   ~~~   ** Other errors may result. Occurred in Day Schedule=0929 CHILLER SETPOINT_dy_1
   ** Warning ** ProcessScheduleInput: DecodeHHMMField, Invalid "until" field value is not a multiple of the minutes for each timestep: UNTIL: 09:42
   **   ~~~   ** Other errors may result. Occurred in Day Schedule=1004 CHILLER SETPOINT_dy_1
   ** Warning ** ProcessScheduleInput: DecodeHHMMField, Invalid "until" field value is not a multiple of the minutes for each timestep: UNTIL: 09:51
   **   ~~~   ** Other errors may result. Occurred in Day Schedule=1004 CHILLER SETPOINT_dy_1
   ** Warning ** ProcessScheduleInput: DecodeHHMMField, Invalid "until" field value is not a multiple of the minutes for each timestep: UNTIL: 10:03
   **   ~~~   ** Other errors may result. Occurred in Day Schedule=1004 CHILLER SETPOINT_dy_1
   ** Warning ** ProcessScheduleInput: DecodeHHMMField, Invalid "until" field value is not a multiple of the minutes for each timestep: UNTIL: 10:12
   **   ~~~   ** Other errors may result. Occurred in Day Schedule=1004 CHILLER SETPOINT_dy_1
   ** Warning ** ProcessScheduleInput: DecodeHHMMField, Invalid "until" field value is not a multiple of the minutes for each timestep: UNTIL: 10:22
   **   ~~~   ** Other errors may result. Occurred in Day Schedule=1004 CHILLER SETPOINT_dy_1
   ** Warning ** ProcessScheduleInput: DecodeHHMMField, Invalid "until" field value is not a multiple of the minutes for each timestep: UNTIL: 10:52
   **   ~~~   ** Other errors may result. Occurred in Day Schedule=1004 CHILLER SETPOINT_dy_1
   ** Warning ** ProcessScheduleInput: DecodeHHMMField, Invalid "until" field value is not a multiple of the minutes for each timestep: UNTIL: 11:12
   **   ~~~   ** Other errors may result. Occurred in Day Schedule=1004 CHILLER SETPOINT_dy_1
   ** Warning ** ProcessScheduleInput: DecodeHHMMField, Invalid "until" field value is not a multiple of the minutes for each timestep: UNTIL: 11:22
   **   ~~~   ** Other errors may result. Occurred in Day Schedule=1004 CHILLER SETPOINT_dy_1
   ** Warning ** ProcessScheduleInput: DecodeHHMMField, Invalid "until" field value is not a multiple of the minutes for each timestep: UNTIL: 11:43
   **   ~~~   ** Other errors may result. Occurred in Day Schedule=1004 CHILLER SETPOINT_dy_1
   ** Warning ** ProcessScheduleInput: DecodeHHMMField, Invalid "until" field value is not a multiple of the minutes for each timestep: UNTIL: 11:52
   **   ~~~   ** Other errors may result. Occurred in Day Schedule=1004 CHILLER SETPOINT_dy_1
   ** Warning ** ProcessScheduleInput: DecodeHHMMField, Invalid "until" field value is not a multiple of the minutes for each timestep: UNTIL: 12:12
   **   ~~~   ** Other errors may result. Occurred in Day Schedule=1004 CHILLER SETPOINT_dy_1
   ** Warning ** ProcessScheduleInput: DecodeHHMMField, Invalid "until" field value is not a multiple of the minutes for each timestep: UNTIL: 12:22
   **   ~~~   ** Other errors may result. Occurred in Day Schedule=1004 CHILLER SETPOINT_dy_1
   ** Warning ** ProcessScheduleInput: DecodeHHMMField, Invalid "until" field value is not a multiple of the minutes for each timestep: UNTIL: 12:32
   **   ~~~   ** Other errors may result. Occurred in Day Schedule=1004 CHILLER SETPOINT_dy_1
   ** Warning ** ProcessScheduleInput: DecodeHHMMField, Invalid "until" field value is not a multiple of the minutes for each timestep: UNTIL: 13:12
   **   ~~~   ** Other errors may result. Occurred in Day Schedule=1004 CHILLER SETPOINT_dy_1
   ** Warning ** ProcessScheduleInput: DecodeHHMMField, Invalid "until" field value is not a multiple of the minutes for each timestep: UNTIL: 13:17
   **   ~~~   ** Other errors may result. Occurred in Day Schedule=1004 CHILLER SETPOINT_dy_1
   ** Warning ** ProcessScheduleInput: DecodeHHMMField, Invalid "until" field value is not a multiple of the minutes for each timestep: UNTIL: 13:42
   **   ~~~   ** Other errors may result. Occurred in Day Schedule=1004 CHILLER SETPOINT_dy_1
   ** Warning ** ProcessScheduleInput: DecodeHHMMField, Invalid "until" field value is not a multiple of the minutes for each timestep: UNTIL: 14:12
   **   ~~~   ** Other errors may result. Occurred in Day Schedule=1004 CHILLER SETPOINT_dy_1
   ** Warning ** ProcessScheduleInput: DecodeHHMMField, Invalid "until" field value is not a multiple of the minutes for each timestep: UNTIL: 14:22
   **   ~~~   ** Other errors may result. Occurred in Day Schedule=1004 CHILLER SETPOINT_dy_1
   ** Warning ** ProcessScheduleInput: DecodeHHMMField, Invalid "until" field value is not a multiple of the minutes for each timestep: UNTIL: 14:42
   **   ~~~   ** Other errors may result. Occurred in Day Schedule=1004 CHILLER SETPOINT_dy_1
   ** Warning ** ProcessScheduleInput: DecodeHHMMField, Invalid "until" field value is not a multiple of the minutes for each timestep: UNTIL: 14:52
   **   ~~~   ** Other errors may result. Occurred in Day Schedule=1004 CHILLER SETPOINT_dy_1
   ** Warning ** ProcessScheduleInput: DecodeHHMMField, Invalid "until" field value is not a multiple of the minutes for each timestep: UNTIL: 15:13
   **   ~~~   ** Other errors may result. Occurred in Day Schedule=1004 CHILLER SETPOINT_dy_1
   ** Warning ** ProcessScheduleInput: DecodeHHMMField, Invalid "until" field value is not a multiple of the minutes for each timestep: UNTIL: 15:22
   **   ~~~   ** Other errors may result. Occurred in Day Schedule=1004 CHILLER SETPOINT_dy_1
   ** Warning ** ProcessScheduleInput: DecodeHHMMField, Invalid "until" field value is not a multiple of the minutes for each timestep: UNTIL: 15:32
   **   ~~~   ** Other errors may result. Occurred in Day Schedule=1004 CHILLER SETPOINT_dy_1
   ** Warning ** ProcessScheduleInput: DecodeHHMMField, Invalid "until" field value is not a multiple of the minutes for each timestep: UNTIL: 15:52
   **   ~~~   ** Other errors may result. Occurred in Day Schedule=1004 CHILLER SETPOINT_dy_1
   ** Warning ** ProcessScheduleInput: DecodeHHMMField, Invalid "until" field value is not a multiple of the minutes for each timestep: UNTIL: 16:12
   **   ~~~   ** Other errors may result. Occurred in Day Schedule=1004 CHILLER SETPOINT_dy_1
   ** Warning ** ProcessScheduleInput: DecodeHHMMField, Invalid "until" field value is not a multiple of the minutes for each timestep: UNTIL: 16:22
   **   ~~~   ** Other errors may result. Occurred in Day Schedule=1004 CHILLER SETPOINT_dy_1
   ** Warning ** ProcessScheduleInput: DecodeHHMMField, Invalid "until" field value is not a multiple of the minutes for each timestep: UNTIL: 16:51
   **   ~~~   ** Other errors may result. Occurred in Day Schedule=1004 CHILLER SETPOINT_dy_1
   ** Warning ** ProcessScheduleInput: DecodeHHMMField, Invalid "until" field value is not a multiple of the minutes for each timestep: UNTIL: 17:12
   **   ~~~   ** Other errors may result. Occurred in Day Schedule=1004 CHILLER SETPOINT_dy_1
   ** Warning ** ProcessScheduleInput: DecodeHHMMField, Invalid "until" field value is not a multiple of the minutes for each timestep: UNTIL: 17:22
   **   ~~~   ** Other errors may result. Occurred in Day Schedule=1004 CHILLER SETPOINT_dy_1
   ** Warning ** ProcessScheduleInput: DecodeHHMMField, Invalid "until" field value is not a multiple of the minutes for each timestep: UNTIL: 17:42
   **   ~~~   ** Other errors may result. Occurred in Day Schedule=1004 CHILLER SETPOINT_dy_1
   ** Warning ** ProcessScheduleInput: DecodeHHMMField, Invalid "until" field value is not a multiple of the minutes for each timestep: UNTIL: 17:52
   **   ~~~   ** Other errors may result. Occurred in Day Schedule=1004 CHILLER SETPOINT_dy_1
   ** Warning ** ProcessScheduleInput: DecodeHHMMField, Invalid "until" field value is not a multiple of the minutes for each timestep: UNTIL: 18:12
   **   ~~~   ** Other errors may result. Occurred in Day Schedule=1004 CHILLER SETPOINT_dy_1
   ** Warning ** ProcessScheduleInput: DecodeHHMMField, Invalid "until" field value is not a multiple of the minutes for each timestep: UNTIL: 18:22
   **   ~~~   ** Other errors may result. Occurred in Day Schedule=1004 CHILLER SETPOINT_dy_1
   ** Warning ** ProcessScheduleInput: DecodeHHMMField, Invalid "until" field value is not a multiple of the minutes for each timestep: UNTIL: 18:43
   **   ~~~   ** Other errors may result. Occurred in Day Schedule=1004 CHILLER SETPOINT_dy_1
   ** Warning ** ProcessScheduleInput: DecodeHHMMField, Invalid "until" field value is not a multiple of the minutes for each timestep: UNTIL: 18:52
   **   ~~~   ** Other errors may result. Occurred in Day Schedule=1004 CHILLER SETPOINT_dy_1
   ** Warning ** ProcessScheduleInput: DecodeHHMMField, Invalid "until" field value is not a multiple of the minutes for each timestep: UNTIL: 19:03
   **   ~~~   ** Other errors may result. Occurred in Day Schedule=1004 CHILLER SETPOINT_dy_1
   ** Warning ** ProcessScheduleInput: DecodeHHMMField, Invalid "until" field value is not a multiple of the minutes for each timestep: UNTIL: 19:22
   **   ~~~   ** Other errors may result. Occurred in Day Schedule=1004 CHILLER SETPOINT_dy_1
   ** Warning ** ProcessScheduleInput: DecodeHHMMField, Invalid "until" field value is not a multiple of the minutes for each timestep: UNTIL: 19:32
   **   ~~~   ** Other errors may result. Occurred in Day Schedule=1004 CHILLER SETPOINT_dy_1
   ** Warning ** ProcessScheduleInput: DecodeHHMMField, Invalid "until" field value is not a multiple of the minutes for each timestep: UNTIL: 19:52
   **   ~~~   ** Other errors may result. Occurred in Day Schedule=1004 CHILLER SETPOINT_dy_1
   ** Warning ** ProcessScheduleInput: DecodeHHMMField, Invalid "until" field value is not a multiple of the minutes for each timestep: UNTIL: 20:12
   **   ~~~   ** Other errors may result. Occurred in Day Schedule=1004 CHILLER SETPOINT_dy_1
   ** Warning ** ProcessScheduleInput: DecodeHHMMField, Invalid "until" field value is not a multiple of the minutes for each timestep: UNTIL: 20:22
   **   ~~~   ** Other errors may result. Occurred in Day Schedule=1004 CHILLER SETPOINT_dy_1
   ** Warning ** ProcessScheduleInput: DecodeHHMMField, Invalid "until" field value is not a multiple of the minutes for each timestep: UNTIL: 20:32
   **   ~~~   ** Other errors may result. Occurred in Day Schedule=1004 CHILLER SETPOINT_dy_1
   ** Warning ** ProcessScheduleInput: DecodeHHMMField, Invalid "until" field value is not a multiple of the minutes for each timestep: UNTIL: 09:52
   **   ~~~   ** Other errors may result. Occurred in Day Schedule=1005 CHILLER SETPOINT_dy_1
   ** Warning ** ProcessScheduleInput: DecodeHHMMField, Invalid "until" field value is not a multiple of the minutes for each timestep: UNTIL: 10:03
   **   ~~~   ** Other errors may result. Occurred in Day Schedule=1005 CHILLER SETPOINT_dy_1
   ** Warning ** ProcessScheduleInput: DecodeHHMMField, Invalid "until" field value is not a multiple of the minutes for each timestep: UNTIL: 10:22
   **   ~~~   ** Other errors may result. Occurred in Day Schedule=1005 CHILLER SETPOINT_dy_1
   ** Warning ** ProcessScheduleInput: DecodeHHMMField, Invalid "until" field value is not a multiple of the minutes for each timestep: UNTIL: 10:32
   **   ~~~   ** Other errors may result. Occurred in Day Schedule=1005 CHILLER SETPOINT_dy_1
   ** Warning ** ProcessScheduleInput: DecodeHHMMField, Invalid "until" field value is not a multiple of the minutes for each timestep: UNTIL: 10:43
   **   ~~~   ** Other errors may result. Occurred in Day Schedule=1005 CHILLER SETPOINT_dy_1
   ** Warning ** ProcessScheduleInput: DecodeHHMMField, Invalid "until" field value is not a multiple of the minutes for each timestep: UNTIL: 11:02
   **   ~~~   ** Other errors may result. Occurred in Day Schedule=1005 CHILLER SETPOINT_dy_1
   ** Warning ** ProcessScheduleInput: DecodeHHMMField, Invalid "until" field value is not a multiple of the minutes for each timestep: UNTIL: 11:22
   **   ~~~   ** Other errors may result. Occurred in Day Schedule=1005 CHILLER SETPOINT_dy_1
   ** Warning ** ProcessScheduleInput: DecodeHHMMField, Invalid "until" field value is not a multiple of the minutes for each timestep: UNTIL: 11:32
   **   ~~~   ** Other errors may result. Occurred in Day Schedule=1005 CHILLER SETPOINT_dy_1
   ** Warning ** ProcessScheduleInput: DecodeHHMMField, Invalid "until" field value is not a multiple of the minutes for each timestep: UNTIL: 11:52
   **   ~~~   ** Other errors may result. Occurred in Day Schedule=1005 CHILLER SETPOINT_dy_1
   ** Warning ** ProcessScheduleInput: DecodeHHMMField, Invalid "until" field value is not a multiple of the minutes for each timestep: UNTIL: 11:57
   **   ~~~   ** Other errors may result. Occurred in Day Schedule=1005 CHILLER SETPOINT_dy_1
   ** Warning ** ProcessScheduleInput: DecodeHHMMField, Invalid "until" field value is not a multiple of the minutes for each timestep: UNTIL: 12:23
   **   ~~~   ** Other errors may result. Occurred in Day Schedule=1005 CHILLER SETPOINT_dy_1
   ** Warning ** ProcessScheduleInput: DecodeHHMMField, Invalid "until" field value is not a multiple of the minutes for each timestep: UNTIL: 12:32
   **   ~~~   ** Other errors may result. Occurred in Day Schedule=1005 CHILLER SETPOINT_dy_1
   ** Warning ** ProcessScheduleInput: DecodeHHMMField, Invalid "until" field value is not a multiple of the minutes for each timestep: UNTIL: 13:32
   **   ~~~   ** Other errors may result. Occurred in Day Schedule=1005 CHILLER SETPOINT_dy_1
   ** Warning ** ProcessScheduleInput: DecodeHHMMField, Invalid "until" field value is not a multiple of the minutes for each timestep: UNTIL: 13:52
   **   ~~~   ** Other errors may result. Occurred in Day Schedule=1005 CHILLER SETPOINT_dy_1
   ** Warning ** ProcessScheduleInput: DecodeHHMMField, Invalid "until" field value is not a multiple of the minutes for each timestep: UNTIL: 14:02
   **   ~~~   ** Other errors may result. Occurred in Day Schedule=1005 CHILLER SETPOINT_dy_1
   ** Warning ** ProcessScheduleInput: DecodeHHMMField, Invalid "until" field value is not a multiple of the minutes for each timestep: UNTIL: 14:52
   **   ~~~   ** Other errors may result. Occurred in Day Schedule=1005 CHILLER SETPOINT_dy_1
   ** Warning ** ProcessScheduleInput: DecodeHHMMField, Invalid "until" field value is not a multiple of the minutes for each timestep: UNTIL: 15:02
   **   ~~~   ** Other errors may result. Occurred in Day Schedule=1005 CHILLER SETPOINT_dy_1
   ** Warning ** ProcessScheduleInput: DecodeHHMMField, Invalid "until" field value is not a multiple of the minutes for each timestep: UNTIL: 15:13
   **   ~~~   ** Other errors may result. Occurred in Day Schedule=1005 CHILLER SETPOINT_dy_1
   ** Warning ** ProcessScheduleInput: DecodeHHMMField, Invalid "until" field value is not a multiple of the minutes for each timestep: UNTIL: 15:32
   **   ~~~   ** Other errors may result. Occurred in Day Schedule=1005 CHILLER SETPOINT_dy_1
   ** Warning ** ProcessScheduleInput: DecodeHHMMField, Invalid "until" field value is not a multiple of the minutes for each timestep: UNTIL: 15:42
   **   ~~~   ** Other errors may result. Occurred in Day Schedule=1005 CHILLER SETPOINT_dy_1
   ** Warning ** ProcessScheduleInput: DecodeHHMMField, Invalid "until" field value is not a multiple of the minutes for each timestep: UNTIL: 16:02
   **   ~~~   ** Other errors may result. Occurred in Day Schedule=1005 CHILLER SETPOINT_dy_1
   ** Warning ** ProcessScheduleInput: DecodeHHMMField, Invalid "until" field value is not a multiple of the minutes for each timestep: UNTIL: 16:14
   **   ~~~   ** Other errors may result. Occurred in Day Schedule=1005 CHILLER SETPOINT_dy_1
   ** Warning ** ProcessScheduleInput: DecodeHHMMField, Invalid "until" field value is not a multiple of the minutes for each timestep: UNTIL: 16:33
   **   ~~~   ** Other errors may result. Occurred in Day Schedule=1005 CHILLER SETPOINT_dy_1
   ** Warning ** ProcessScheduleInput: DecodeHHMMField, Invalid "until" field value is not a multiple of the minutes for each timestep: UNTIL: 16:51
   **   ~~~   ** Other errors may result. Occurred in Day Schedule=1005 CHILLER SETPOINT_dy_1
   ** Warning ** ProcessScheduleInput: DecodeHHMMField, Invalid "until" field value is not a multiple of the minutes for each timestep: UNTIL: 16:58
   **   ~~~   ** Other errors may result. Occurred in Day Schedule=1005 CHILLER SETPOINT_dy_1
   ** Warning ** ProcessScheduleInput: DecodeHHMMField, Invalid "until" field value is not a multiple of the minutes for each timestep: UNTIL: 17:22
   **   ~~~   ** Other errors may result. Occurred in Day Schedule=1005 CHILLER SETPOINT_dy_1
   ** Warning ** ProcessScheduleInput: DecodeHHMMField, Invalid "until" field value is not a multiple of the minutes for each timestep: UNTIL: 17:52
   **   ~~~   ** Other errors may result. Occurred in Day Schedule=1005 CHILLER SETPOINT_dy_1
   ** Warning ** ProcessScheduleInput: DecodeHHMMField, Invalid "until" field value is not a multiple of the minutes for each timestep: UNTIL: 18:02
   **   ~~~   ** Other errors may result. Occurred in Day Schedule=1005 CHILLER SETPOINT_dy_1
   ** Warning ** ProcessScheduleInput: DecodeHHMMField, Invalid "until" field value is not a multiple of the minutes for each timestep: UNTIL: 18:23
   **   ~~~   ** Other errors may result. Occurred in Day Schedule=1005 CHILLER SETPOINT_dy_1
   ** Warning ** ProcessScheduleInput: DecodeHHMMField, Invalid "until" field value is not a multiple of the minutes for each timestep: UNTIL: 18:32
   **   ~~~   ** Other errors may result. Occurred in Day Schedule=1005 CHILLER SETPOINT_dy_1
   ** Warning ** ProcessScheduleInput: DecodeHHMMField, Invalid "until" field value is not a multiple of the minutes for each timestep: UNTIL: 18:43
   **   ~~~   ** Other errors may result. Occurred in Day Schedule=1005 CHILLER SETPOINT_dy_1
   ** Warning ** ProcessScheduleInput: DecodeHHMMField, Invalid "until" field value is not a multiple of the minutes for each timestep: UNTIL: 19:18
   **   ~~~   ** Other errors may result. Occurred in Day Schedule=1005 CHILLER SETPOINT_dy_1
   ** Warning ** ProcessScheduleInput: DecodeHHMMField, Invalid "until" field value is not a multiple of the minutes for each timestep: UNTIL: 19:28
   **   ~~~   ** Other errors may result. Occurred in Day Schedule=1005 CHILLER SETPOINT_dy_1
   ** Warning ** ProcessScheduleInput: DecodeHHMMField, Invalid "until" field value is not a multiple of the minutes for each timestep: UNTIL: 19:47
   **   ~~~   ** Other errors may result. Occurred in Day Schedule=1005 CHILLER SETPOINT_dy_1
   ** Warning ** ProcessScheduleInput: DecodeHHMMField, Invalid "until" field value is not a multiple of the minutes for each timestep: UNTIL: 19:57
   **   ~~~   ** Other errors may result. Occurred in Day Schedule=1005 CHILLER SETPOINT_dy_1
   ** Warning ** ProcessScheduleInput: DecodeHHMMField, Invalid "until" field value is not a multiple of the minutes for each timestep: UNTIL: 20:18
   **   ~~~   ** Other errors may result. Occurred in Day Schedule=1005 CHILLER SETPOINT_dy_1
   ** Warning ** ProcessScheduleInput: DecodeHHMMField, Invalid "until" field value is not a multiple of the minutes for each timestep: UNTIL: 20:38
   **   ~~~   ** Other errors may result. Occurred in Day Schedule=1005 CHILLER SETPOINT_dy_1
   ** Warning ** ProcessScheduleInput: DecodeHHMMField, Invalid "until" field value is not a multiple of the minutes for each timestep: UNTIL: 20:43
   **   ~~~   ** Other errors may result. Occurred in Day Schedule=1005 CHILLER SETPOINT_dy_1
   ** Warning ** ProcessScheduleInput: DecodeHHMMField, Invalid "until" field value is not a multiple of the minutes for each timestep: UNTIL: 09:35
   **   ~~~   ** Other errors may result. Occurred in Day Schedule=1002 CHILLER SETPOINT_dy_1
   ** Warning ** ProcessScheduleInput: DecodeHHMMField, Invalid "until" field value is not a multiple of the minutes for each timestep: UNTIL: 09:50
   **   ~~~   ** Other errors may result. Occurred in Day Schedule=1002 CHILLER SETPOINT_dy_1
   ** Warning ** ProcessScheduleInput: DecodeHHMMField, Invalid "until" field value is not a multiple of the minutes for each timestep: UNTIL: 10:05
   **   ~~~   ** Other errors may result. Occurred in Day Schedule=1002 CHILLER SETPOINT_dy_1
   ** Warning ** ProcessScheduleInput: DecodeHHMMField, Invalid "until" field value is not a multiple of the minutes for each timestep: UNTIL: 11:05
   **   ~~~   ** Other errors may result. Occurred in Day Schedule=1002 CHILLER SETPOINT_dy_1
   ** Warning ** ProcessScheduleInput: DecodeHHMMField, Invalid "until" field value is not a multiple of the minutes for each timestep: UNTIL: 11:20
   **   ~~~   ** Other errors may result. Occurred in Day Schedule=1002 CHILLER SETPOINT_dy_1
   ** Warning ** ProcessScheduleInput: DecodeHHMMField, Invalid "until" field value is not a multiple of the minutes for each timestep: UNTIL: 11:35
   **   ~~~   ** Other errors may result. Occurred in Day Schedule=1002 CHILLER SETPOINT_dy_1
   ** Warning ** ProcessScheduleInput: DecodeHHMMField, Invalid "until" field value is not a multiple of the minutes for each timestep: UNTIL: 11:50
   **   ~~~   ** Other errors may result. Occurred in Day Schedule=1002 CHILLER SETPOINT_dy_1
   ** Warning ** ProcessScheduleInput: DecodeHHMMField, Invalid "until" field value is not a multiple of the minutes for each timestep: UNTIL: 12:05
   **   ~~~   ** Other errors may result. Occurred in Day Schedule=1002 CHILLER SETPOINT_dy_1
   ** Warning ** ProcessScheduleInput: DecodeHHMMField, Invalid "until" field value is not a multiple of the minutes for each timestep: UNTIL: 12:20
   **   ~~~   ** Other errors may result. Occurred in Day Schedule=1002 CHILLER SETPOINT_dy_1
   ** Warning ** ProcessScheduleInput: DecodeHHMMField, Invalid "until" field value is not a multiple of the minutes for each timestep: UNTIL: 12:35
   **   ~~~   ** Other errors may result. Occurred in Day Schedule=1002 CHILLER SETPOINT_dy_1
   ** Warning ** ProcessScheduleInput: DecodeHHMMField, Invalid "until" field value is not a multiple of the minutes for each timestep: UNTIL: 14:50
   **   ~~~   ** Other errors may result. Occurred in Day Schedule=1002 CHILLER SETPOINT_dy_1
   ** Warning ** ProcessScheduleInput: DecodeHHMMField, Invalid "until" field value is not a multiple of the minutes for each timestep: UNTIL: 15:05
   **   ~~~   ** Other errors may result. Occurred in Day Schedule=1002 CHILLER SETPOINT_dy_1
   ** Warning ** ProcessScheduleInput: DecodeHHMMField, Invalid "until" field value is not a multiple of the minutes for each timestep: UNTIL: 15:20
   **   ~~~   ** Other errors may result. Occurred in Day Schedule=1002 CHILLER SETPOINT_dy_1
   ** Warning ** ProcessScheduleInput: DecodeHHMMField, Invalid "until" field value is not a multiple of the minutes for each timestep: UNTIL: 15:35
   **   ~~~   ** Other errors may result. Occurred in Day Schedule=1002 CHILLER SETPOINT_dy_1
   ** Warning ** ProcessScheduleInput: DecodeHHMMField, Invalid "until" field value is not a multiple of the minutes for each timestep: UNTIL: 15:50
   **   ~~~   ** Other errors may result. Occurred in Day Schedule=1002 CHILLER SETPOINT_dy_1
   ** Warning ** ProcessScheduleInput: DecodeHHMMField, Invalid "until" field value is not a multiple of the minutes for each timestep: UNTIL: 16:05
   **   ~~~   ** Other errors may result. Occurred in Day Schedule=1002 CHILLER SETPOINT_dy_1
   ** Warning ** ProcessScheduleInput: DecodeHHMMField, Invalid "until" field value is not a multiple of the minutes for each timestep: UNTIL: 16:20
   **   ~~~   ** Other errors may result. Occurred in Day Schedule=1002 CHILLER SETPOINT_dy_1
   ** Warning ** ProcessScheduleInput: DecodeHHMMField, Invalid "until" field value is not a multiple of the minutes for each timestep: UNTIL: 16:35
   **   ~~~   ** Other errors may result. Occurred in Day Schedule=1002 CHILLER SETPOINT_dy_1
   ** Warning ** ProcessScheduleInput: DecodeHHMMField, Invalid "until" field value is not a multiple of the minutes for each timestep: UNTIL: 16:50
   **   ~~~   ** Other errors may result. Occurred in Day Schedule=1002 CHILLER SETPOINT_dy_1
   ** Warning ** ProcessScheduleInput: DecodeHHMMField, Invalid "until" field value is not a multiple of the minutes for each timestep: UNTIL: 17:05
   **   ~~~   ** Other errors may result. Occurred in Day Schedule=1002 CHILLER SETPOINT_dy_1
   ** Warning ** ProcessScheduleInput: DecodeHHMMField, Invalid "until" field value is not a multiple of the minutes for each timestep: UNTIL: 18:35
   **   ~~~   ** Other errors may result. Occurred in Day Schedule=1002 CHILLER SETPOINT_dy_1
   ** Warning ** ProcessScheduleInput: DecodeHHMMField, Invalid "until" field value is not a multiple of the minutes for each timestep: UNTIL: 18:50
   **   ~~~   ** Other errors may result. Occurred in Day Schedule=1002 CHILLER SETPOINT_dy_1
   ** Warning ** ProcessScheduleInput: DecodeHHMMField, Invalid "until" field value is not a multiple of the minutes for each timestep: UNTIL: 19:05
   **   ~~~   ** Other errors may result. Occurred in Day Schedule=1002 CHILLER SETPOINT_dy_1
   ** Warning ** ProcessScheduleInput: DecodeHHMMField, Invalid "until" field value is not a multiple of the minutes for each timestep: UNTIL: 19:20
   **   ~~~   ** Other errors may result. Occurred in Day Schedule=1002 CHILLER SETPOINT_dy_1
   ** Warning ** ProcessScheduleInput: DecodeHHMMField, Invalid "until" field value is not a multiple of the minutes for each timestep: UNTIL: 19:35
   **   ~~~   ** Other errors may result. Occurred in Day Schedule=1002 CHILLER SETPOINT_dy_1
   ** Warning ** ProcessScheduleInput: DecodeHHMMField, Invalid "until" field value is not a multiple of the minutes for each timestep: UNTIL: 19:50
   **   ~~~   ** Other errors may result. Occurred in Day Schedule=1002 CHILLER SETPOINT_dy_1
   ** Warning ** ProcessScheduleInput: DecodeHHMMField, Invalid "until" field value is not a multiple of the minutes for each timestep: UNTIL: 20:35
   **   ~~~   ** Other errors may result. Occurred in Day Schedule=1002 CHILLER SETPOINT_dy_1
   ** Warning ** ProcessScheduleInput: DecodeHHMMField, Invalid "until" field value is not a multiple of the minutes for each timestep: UNTIL: 10:05
   **   ~~~   ** Other errors may result. Occurred in Day Schedule=0928 MOER BASE CHILLER SETPOINT_dy_1
   ** Warning ** ProcessScheduleInput: DecodeHHMMField, Invalid "until" field value is not a multiple of the minutes for each timestep: UNTIL: 10:55
   **   ~~~   ** Other errors may result. Occurred in Day Schedule=0928 MOER BASE CHILLER SETPOINT_dy_1
   ** Warning ** ProcessScheduleInput: DecodeHHMMField, Invalid "until" field value is not a multiple of the minutes for each timestep: UNTIL: 12:10
   **   ~~~   ** Other errors may result. Occurred in Day Schedule=0928 MOER BASE CHILLER SETPOINT_dy_1
   ** Warning ** ProcessScheduleInput: DecodeHHMMField, Invalid "until" field value is not a multiple of the minutes for each timestep: UNTIL: 12:35
   **   ~~~   ** Other errors may result. Occurred in Day Schedule=0928 MOER BASE CHILLER SETPOINT_dy_1
   ** Warning ** ProcessScheduleInput: DecodeHHMMField, Invalid "until" field value is not a multiple of the minutes for each timestep: UNTIL: 13:05
   **   ~~~   ** Other errors may result. Occurred in Day Schedule=0928 MOER BASE CHILLER SETPOINT_dy_1
   ** Warning ** ProcessScheduleInput: DecodeHHMMField, Invalid "until" field value is not a multiple of the minutes for each timestep: UNTIL: 13:25
   **   ~~~   ** Other errors may result. Occurred in Day Schedule=0928 MOER BASE CHILLER SETPOINT_dy_1
   ** Warning ** ProcessScheduleInput: DecodeHHMMField, Invalid "until" field value is not a multiple of the minutes for each timestep: UNTIL: 16:10
   **   ~~~   ** Other errors may result. Occurred in Day Schedule=0928 MOER BASE CHILLER SETPOINT_dy_1
   ** Warning ** ProcessScheduleInput: DecodeHHMMField, Invalid "until" field value is not a multiple of the minutes for each timestep: UNTIL: 16:35
   **   ~~~   ** Other errors may result. Occurred in Day Schedule=0928 MOER BASE CHILLER SETPOINT_dy_1
   ** Warning ** ProcessScheduleInput: DecodeHHMMField, Invalid "until" field value is not a multiple of the minutes for each timestep: UNTIL: 16:50
   **   ~~~   ** Other errors may result. Occurred in Day Schedule=0928 MOER BASE CHILLER SETPOINT_dy_1
   ** Warning ** ProcessScheduleInput: DecodeHHMMField, Invalid "until" field value is not a multiple of the minutes for each timestep: UNTIL: 17:10
   **   ~~~   ** Other errors may result. Occurred in Day Schedule=0928 MOER BASE CHILLER SETPOINT_dy_1
   ** Warning ** ProcessScheduleInput: DecodeHHMMField, Invalid "until" field value is not a multiple of the minutes for each timestep: UNTIL: 17:25
   **   ~~~   ** Other errors may result. Occurred in Day Schedule=0928 MOER BASE CHILLER SETPOINT_dy_1
   ** Warning ** ProcessScheduleInput: DecodeHHMMField, Invalid "until" field value is not a multiple of the minutes for each timestep: UNTIL: 17:50
   **   ~~~   ** Other errors may result. Occurred in Day Schedule=0928 MOER BASE CHILLER SETPOINT_dy_1
   ** Warning ** ProcessScheduleInput: DecodeHHMMField, Invalid "until" field value is not a multiple of the minutes for each timestep: UNTIL: 10:10
   **   ~~~   ** Other errors may result. Occurred in Day Schedule=0822 MOER BASE CHILLER SETPOINT(NYC)_dy_1
   ** Warning ** ProcessScheduleInput: DecodeHHMMField, Invalid "until" field value is not a multiple of the minutes for each timestep: UNTIL: 10:50
   **   ~~~   ** Other errors may result. Occurred in Day Schedule=0822 MOER BASE CHILLER SETPOINT(NYC)_dy_1
   ** Warning ** ProcessScheduleInput: DecodeHHMMField, Invalid "until" field value is not a multiple of the minutes for each timestep: UNTIL: 11:10
   **   ~~~   ** Other errors may result. Occurred in Day Schedule=0822 MOER BASE CHILLER SETPOINT(NYC)_dy_1
   ** Warning ** ProcessScheduleInput: DecodeHHMMField, Invalid "until" field value is not a multiple of the minutes for each timestep: UNTIL: 12:10
   **   ~~~   ** Other errors may result. Occurred in Day Schedule=0822 MOER BASE CHILLER SETPOINT(NYC)_dy_1
   ** Warning ** ProcessScheduleInput: DecodeHHMMField, Invalid "until" field value is not a multiple of the minutes for each timestep: UNTIL: 12:35
   **   ~~~   ** Other errors may result. Occurred in Day Schedule=0822 MOER BASE CHILLER SETPOINT(NYC)_dy_1
   ** Warning ** ProcessScheduleInput: DecodeHHMMField, Invalid "until" field value is not a multiple of the minutes for each timestep: UNTIL: 13:05
   **   ~~~   ** Other errors may result. Occurred in Day Schedule=0822 MOER BASE CHILLER SETPOINT(NYC)_dy_1
   ** Warning ** ProcessScheduleInput: DecodeHHMMField, Invalid "until" field value is not a multiple of the minutes for each timestep: UNTIL: 13:25
   **   ~~~   ** Other errors may result. Occurred in Day Schedule=0822 MOER BASE CHILLER SETPOINT(NYC)_dy_1
   ** Warning ** ProcessScheduleInput: DecodeHHMMField, Invalid "until" field value is not a multiple of the minutes for each timestep: UNTIL: 13:40
   **   ~~~   ** Other errors may result. Occurred in Day Schedule=0822 MOER BASE CHILLER SETPOINT(NYC)_dy_1
   ** Warning ** ProcessScheduleInput: DecodeHHMMField, Invalid "until" field value is not a multiple of the minutes for each timestep: UNTIL: 13:50
   **   ~~~   ** Other errors may result. Occurred in Day Schedule=0822 MOER BASE CHILLER SETPOINT(NYC)_dy_1
   ** Warning ** ProcessScheduleInput: DecodeHHMMField, Invalid "until" field value is not a multiple of the minutes for each timestep: UNTIL: 16:25
   **   ~~~   ** Other errors may result. Occurred in Day Schedule=0822 MOER BASE CHILLER SETPOINT(NYC)_dy_1
   ** Warning ** ProcessScheduleInput: DecodeHHMMField, Invalid "until" field value is not a multiple of the minutes for each timestep: UNTIL: 16:50
   **   ~~~   ** Other errors may result. Occurred in Day Schedule=0822 MOER BASE CHILLER SETPOINT(NYC)_dy_1
   ** Warning ** ProcessScheduleInput: DecodeHHMMField, Invalid "until" field value is not a multiple of the minutes for each timestep: UNTIL: 17:10
   **   ~~~   ** Other errors may result. Occurred in Day Schedule=0822 MOER BASE CHILLER SETPOINT(NYC)_dy_1
   ** Warning ** ProcessScheduleInput: DecodeHHMMField, Invalid "until" field value is not a multiple of the minutes for each timestep: UNTIL: 17:25
   **   ~~~   ** Other errors may result. Occurred in Day Schedule=0822 MOER BASE CHILLER SETPOINT(NYC)_dy_1
   ** Warning ** ProcessScheduleInput: DecodeHHMMField, Invalid "until" field value is not a multiple of the minutes for each timestep: UNTIL: 17:50
   **   ~~~   ** Other errors may result. Occurred in Day Schedule=0822 MOER BASE CHILLER SETPOINT(NYC)_dy_1
   ** Warning ** ProcessScheduleInput: DecodeHHMMField, Invalid "until" field value is not a multiple of the minutes for each timestep: UNTIL: 8:55
   **   ~~~   ** Other errors may result. Occurred in Day Schedule=0206 MOER BASE CHILLER SETPOINT(CA)_dy_1
   ** Warning ** ProcessScheduleInput: DecodeHHMMField, Invalid "until" field value is not a multiple of the minutes for each timestep: UNTIL: 9:10
   **   ~~~   ** Other errors may result. Occurred in Day Schedule=0206 MOER BASE CHILLER SETPOINT(CA)_dy_1
   ** Warning ** ProcessScheduleInput: DecodeHHMMField, Invalid "until" field value is not a multiple of the minutes for each timestep: UNTIL: 9:25
   **   ~~~   ** Other errors may result. Occurred in Day Schedule=0206 MOER BASE CHILLER SETPOINT(CA)_dy_1
   ** Warning ** ProcessScheduleInput: DecodeHHMMField, Invalid "until" field value is not a multiple of the minutes for each timestep: UNTIL: 10:35
   **   ~~~   ** Other errors may result. Occurred in Day Schedule=0206 MOER BASE CHILLER SETPOINT(CA)_dy_1
   ** Warning ** ProcessScheduleInput: DecodeHHMMField, Invalid "until" field value is not a multiple of the minutes for each timestep: UNTIL: 10:55
   **   ~~~   ** Other errors may result. Occurred in Day Schedule=0206 MOER BASE CHILLER SETPOINT(CA)_dy_1
   ** Warning ** ProcessScheduleInput: DecodeHHMMField, Invalid "until" field value is not a multiple of the minutes for each timestep: UNTIL: 14:40
   **   ~~~   ** Other errors may result. Occurred in Day Schedule=0206 MOER BASE CHILLER SETPOINT(CA)_dy_1
   ** Warning ** ProcessScheduleInput: DecodeHHMMField, Invalid "until" field value is not a multiple of the minutes for each timestep: UNTIL: 14:50
   **   ~~~   ** Other errors may result. Occurred in Day Schedule=0206 MOER BASE CHILLER SETPOINT(CA)_dy_1
   ** Warning ** ProcessScheduleInput: DecodeHHMMField, Invalid "until" field value is not a multiple of the minutes for each timestep: UNTIL: 16:25
   **   ~~~   ** Other errors may result. Occurred in Day Schedule=0206 MOER BASE CHILLER SETPOINT(CA)_dy_1
   ** Warning ** ProcessScheduleInput: DecodeHHMMField, Invalid "until" field value is not a multiple of the minutes for each timestep: UNTIL: 16:35
   **   ~~~   ** Other errors may result. Occurred in Day Schedule=0206 MOER BASE CHILLER SETPOINT(CA)_dy_1
   ** Warning ** ProcessScheduleInput: DecodeHHMMField, Invalid "until" field value is not a multiple of the minutes for each timestep: UNTIL: 16:55
   **   ~~~   ** Other errors may result. Occurred in Day Schedule=0206 MOER BASE CHILLER SETPOINT(CA)_dy_1
   ** Warning ** ProcessScheduleInput: DecodeHHMMField, Invalid "until" field value is not a multiple of the minutes for each timestep: UNTIL: 17:05
   **   ~~~   ** Other errors may result. Occurred in Day Schedule=0206 MOER BASE CHILLER SETPOINT(CA)_dy_1
   ** Warning ** ProcessScheduleInput: DecodeHHMMField, Invalid "until" field value is not a multiple of the minutes for each timestep: UNTIL: 10:20
   **   ~~~   ** Other errors may result. Occurred in Day Schedule=0607 MOER BASE CHILLER SETPOINT(CA)_dy_1
   ** Warning ** ProcessScheduleInput: DecodeHHMMField, Invalid "until" field value is not a multiple of the minutes for each timestep: UNTIL: 10:40
   **   ~~~   ** Other errors may result. Occurred in Day Schedule=0607 MOER BASE CHILLER SETPOINT(CA)_dy_1
   ** Warning ** ProcessScheduleInput: DecodeHHMMField, Invalid "until" field value is not a multiple of the minutes for each timestep: UNTIL: 12:05
   **   ~~~   ** Other errors may result. Occurred in Day Schedule=0607 MOER BASE CHILLER SETPOINT(CA)_dy_1
   ** Warning ** ProcessScheduleInput: DecodeHHMMField, Invalid "until" field value is not a multiple of the minutes for each timestep: UNTIL: 12:25
   **   ~~~   ** Other errors may result. Occurred in Day Schedule=0607 MOER BASE CHILLER SETPOINT(CA)_dy_1
   ** Warning ** ProcessScheduleInput: DecodeHHMMField, Invalid "until" field value is not a multiple of the minutes for each timestep: UNTIL: 12:55
   **   ~~~   ** Other errors may result. Occurred in Day Schedule=0607 MOER BASE CHILLER SETPOINT(CA)_dy_1
   ** Warning ** ProcessScheduleInput: DecodeHHMMField, Invalid "until" field value is not a multiple of the minutes for each timestep: UNTIL: 13:25
   **   ~~~   ** Other errors may result. Occurred in Day Schedule=0607 MOER BASE CHILLER SETPOINT(CA)_dy_1
   ** Warning ** ProcessScheduleInput: DecodeHHMMField, Invalid "until" field value is not a multiple of the minutes for each timestep: UNTIL: 15:10
   **   ~~~   ** Other errors may result. Occurred in Day Schedule=0607 MOER BASE CHILLER SETPOINT(CA)_dy_1
   ** Warning ** ProcessScheduleInput: DecodeHHMMField, Invalid "until" field value is not a multiple of the minutes for each timestep: UNTIL: 15:35
   **   ~~~   ** Other errors may result. Occurred in Day Schedule=0607 MOER BASE CHILLER SETPOINT(CA)_dy_1
   ** Warning ** ProcessScheduleInput: DecodeHHMMField, Invalid "until" field value is not a multiple of the minutes for each timestep: UNTIL: 16:35
   **   ~~~   ** Other errors may result. Occurred in Day Schedule=0607 MOER BASE CHILLER SETPOINT(CA)_dy_1
   ** Warning ** ProcessScheduleInput: DecodeHHMMField, Invalid "until" field value is not a multiple of the minutes for each timestep: UNTIL: 16:50
   **   ~~~   ** Other errors may result. Occurred in Day Schedule=0607 MOER BASE CHILLER SETPOINT(CA)_dy_1
   ** Warning ** ProcessScheduleInput: DecodeHHMMField, Invalid "until" field value is not a multiple of the minutes for each timestep: UNTIL: 17:05
   **   ~~~   ** Other errors may result. Occurred in Day Schedule=0607 MOER BASE CHILLER SETPOINT(CA)_dy_1
   ** Warning ** ProcessScheduleInput: DecodeHHMMField, Invalid "until" field value is not a multiple of the minutes for each timestep: UNTIL: 17:20
   **   ~~~   ** Other errors may result. Occurred in Day Schedule=0607 MOER BASE CHILLER SETPOINT(CA)_dy_1
   ** Warning ** ProcessScheduleInput: DecodeHHMMField, Invalid "until" field value is not a multiple of the minutes for each timestep: UNTIL: 17:40
   **   ~~~   ** Other errors may result. Occurred in Day Schedule=0607 MOER BASE CHILLER SETPOINT(CA)_dy_1
   ** Warning ** ProcessScheduleInput: DecodeHHMMField, Invalid "until" field value is not a multiple of the minutes for each timestep: UNTIL: 12:40
   **   ~~~   ** Other errors may result. Occurred in Day Schedule=1006 MOER BASE CHILLER SETPOINT(CA)_dy_1
   ** Warning ** ProcessScheduleInput: DecodeHHMMField, Invalid "until" field value is not a multiple of the minutes for each timestep: UNTIL: 12:55
   **   ~~~   ** Other errors may result. Occurred in Day Schedule=1006 MOER BASE CHILLER SETPOINT(CA)_dy_1
   ** Warning ** ProcessScheduleInput: DecodeHHMMField, Invalid "until" field value is not a multiple of the minutes for each timestep: UNTIL: 13:10
   **   ~~~   ** Other errors may result. Occurred in Day Schedule=1006 MOER BASE CHILLER SETPOINT(CA)_dy_1
   ** Warning ** ProcessScheduleInput: DecodeHHMMField, Invalid "until" field value is not a multiple of the minutes for each timestep: UNTIL: 13:35
   **   ~~~   ** Other errors may result. Occurred in Day Schedule=1006 MOER BASE CHILLER SETPOINT(CA)_dy_1
   ** Warning ** ProcessScheduleInput: DecodeHHMMField, Invalid "until" field value is not a multiple of the minutes for each timestep: UNTIL: 13:55
   **   ~~~   ** Other errors may result. Occurred in Day Schedule=1006 MOER BASE CHILLER SETPOINT(CA)_dy_1
[...]
   **   ~~~   ** the coil bypass factor is unrealistically large;
   **   ~~~   ** The initial design conditions are: Tair,in = 23.9829
   **   ~~~   **                                    Wair,in = 1.224125E-002
   **   ~~~   **                                    Twater,in = 6.6667
   **   ~~~   **                                    Tair,out = 14.4444
   **   ~~~   **                                    Wair,out = 1.034141E-002
   ** Warning ** In calculating the design coil UA for Coil:Cooling:Water S430 \- OFFICE_TERMINALCOOLINGCOIL_CW_\{11658\}
   **   ~~~   ** the coil bypass factor is unrealistically large;
   **   ~~~   ** The initial design conditions are: Tair,in = 23.9827
   **   ~~~   **                                    Wair,in = 1.224975E-002
   **   ~~~   **                                    Twater,in = 6.6667
   **   ~~~   **                                    Tair,out = 14.4444
   **   ~~~   **                                    Wair,out = 1.035378E-002
   ** Warning ** In calculating the design coil UA for Coil:Cooling:Water S431 \- OFFICE_TERMINALCOOLINGCOIL_CW_\{11651\}
   **   ~~~   ** the coil bypass factor is unrealistically large;
   **   ~~~   ** The initial design conditions are: Tair,in = 23.9835
   **   ~~~   **                                    Wair,in = 1.240920E-002
   **   ~~~   **                                    Twater,in = 6.6667
   **   ~~~   **                                    Tair,out = 14.4444
   **   ~~~   **                                    Wair,out = 1.061374E-002
   ** Warning ** In calculating the design coil UA for Coil:Cooling:Water S439 \- OPEN OFFICE_TERMINALCOOLINGCOIL_CW_\{11623\}
   **   ~~~   ** the coil bypass factor is unrealistically large;
   **   ~~~   ** The initial design conditions are: Tair,in = 23.9880
   **   ~~~   **                                    Wair,in = 1.250868E-002
   **   ~~~   **                                    Twater,in = 6.6667
   **   ~~~   **                                    Tair,out = 14.4444
   **   ~~~   **                                    Wair,out = 1.048645E-002
   ** Warning ** In calculating the design coil UA for Coil:Cooling:Water S487 \- ELEVATOR 3 SHAFT_TERMINALCOOLINGCOIL_CW_\{11616\}
   **   ~~~   ** the coil bypass factor is unrealistically large;
   **   ~~~   ** The initial design conditions are: Tair,in = 23.9828
   **   ~~~   **                                    Wair,in = 1.215091E-002
   **   ~~~   **                                    Twater,in = 6.6667
   **   ~~~   **                                    Tair,out = 14.4444
   **   ~~~   **                                    Wair,out = 1.028036E-002
   ** Warning ** In calculating the design coil UA for Coil:Cooling:Water S495 \- STAIR 2_TERMINALCOOLINGCOIL_CW_\{11609\}
   **   ~~~   ** the coil bypass factor is unrealistically large;
   **   ~~~   ** The initial design conditions are: Tair,in = 23.9854
   **   ~~~   **                                    Wair,in = 1.236748E-002
   **   ~~~   **                                    Twater,in = 6.6667
   **   ~~~   **                                    Tair,out = 14.4444
   **   ~~~   **                                    Wair,out = 1.040944E-002
   ** Warning ** In calculating the design coil UA for Coil:Cooling:Water S496 \- STAIR 4_TERMINALCOOLINGCOIL_CW_\{11602\}
   **   ~~~   ** the coil bypass factor is unrealistically large;
   **   ~~~   ** The initial design conditions are: Tair,in = 23.9859
   **   ~~~   **                                    Wair,in = 1.245843E-002
   **   ~~~   **                                    Twater,in = 6.6667
   **   ~~~   **                                    Tair,out = 14.4444
   **   ~~~   **                                    Wair,out = 1.056558E-002
   ** Warning ** DXFOut: Could not triangulate surface="EXTRUDED 13 \- CIB \(N&S SPACES\)_A420 \- ATRIUM_ROOFCEILING_8220_\{05301\}", type="Roof", check surface vertex order(entry)
   **   ~~~   ** ...use Output:Diagnostics,DisplayExtraWarnings; to show more details on individual surfaces.
   ** Warning ** DXFOut: Could not triangulate surface="EXTRUDED 13 \- CIB \(N&S SPACES\)_LEVEL 1\.2 SPACE_WALL_6637_\{00455\}", type="Wall", check surface vertex order(entry)
   ** Warning ** DXFOut: Could not triangulate surface="EXTRUDED 13 \- CIB \(N&S SPACES\)_N101 \- PRE\-FUNCTION_FLOOR_226_\{00408\}", type="Floor", check surface vertex order(entry)
   ** Warning ** DXFOut: Could not triangulate surface="EXTRUDED 13 \- CIB \(N&S SPACES\)_N201 \- CORRIDOR_FLOOR_6921_\{01405\}", type="Floor", check surface vertex order(entry)
   ** Warning ** DXFOut: Could not triangulate surface="EXTRUDED 13 \- CIB \(N&S SPACES\)_N230 \- CUSTEXP \- VRF4_FLOOR_6869_\{01238\}", type="Floor", check surface vertex order(entry)
   ** Warning ** DXFOut: Could not triangulate surface="EXTRUDED 13 \- CIB \(N&S SPACES\)_N301 \- CORRIDOR_FLOOR_7470_\{03162\}", type="Floor", check surface vertex order(entry)
   ** Warning ** DXFOut: Could not triangulate surface="EXTRUDED 13 \- CIB \(N&S SPACES\)_N301 \- CORRIDOR_FLOOR_7473_\{03165\}", type="Floor", check surface vertex order(entry)
   ** Warning ** DXFOut: Could not triangulate surface="EXTRUDED 13 \- CIB \(N&S SPACES\)_N313A INTERIOR \- OPEN OFFICE_ROOFCEILING_2444_\{03369\}", type="Roof", check surface vertex order(entry)
   ** Warning ** DXFOut: Could not triangulate surface="EXTRUDED 13 \- CIB \(N&S SPACES\)_N401 \- CORRIDOR_FLOOR_8031_\{04772\}", type="Floor", check surface vertex order(entry)
   ** Warning ** DXFOut: Could not triangulate surface="EXTRUDED 13 \- CIB \(N&S SPACES\)_N414 WEST END \- OPEN OFFICE_ROOFCEILING_3788_\{05141\}", type="Roof", check surface vertex order(entry)
   ** Warning ** DXFOut: Could not triangulate surface="EXTRUDED 13 \- CIB \(N&S SPACES\)_N414A INTERIOR \- OPEN OFFICE_FLOOR_8182_\{05218\}", type="Floor", check surface vertex order(entry)
   ** Warning ** DXFOut: Could not triangulate surface="EXTRUDED 13 \- CIB \(N&S SPACES\)_N414A INTERIOR \- OPEN OFFICE_ROOFCEILING_3848_\{05214\}", type="Roof", check surface vertex order(entry)
   ** Warning ** DXFOut: Could not triangulate surface="EXTRUDED 13 \- CIB \(N&S SPACES\)_N426 \- OPEN OFFICE_FLOOR_7901_\{04390\}", type="Floor", check surface vertex order(entry)
   ** Warning ** DXFOut: Could not triangulate surface="EXTRUDED 13 \- CIB \(N&S SPACES\)_N434 \- OPEN OFFICE_FLOOR_8059_\{04849\}", type="Floor", check surface vertex order(entry)
   ** Warning ** DXFOut: Could not triangulate surface="EXTRUDED 13 \- CIB \(N&S SPACES\)_N434 \- OPEN OFFICE_ROOFCEILING_3566_\{04847\}", type="Roof", check surface vertex order(entry)
   ** Warning ** DXFOut: Could not triangulate surface="EXTRUDED 13 \- CIB \(N&S SPACES\)_N501 \- CORRIDOR_FLOOR_8745_\{07295\}", type="Floor", check surface vertex order(entry)
   ** Warning ** DXFOut: Could not triangulate surface="EXTRUDED 13 \- CIB \(N&S SPACES\)_N501 \- CORRIDOR_FLOOR_8751_\{07296\}", type="Floor", check surface vertex order(entry)
   ** Warning ** DXFOut: Could not triangulate surface="EXTRUDED 13 \- CIB \(N&S SPACES\)_N523 \- CORRIDOR AND RECEPTION_FLOOR_8733_\{07206\}", type="Floor", check surface vertex order(entry)
   ** Warning ** DXFOut: Could not triangulate surface="EXTRUDED 13 \- CIB \(N&S SPACES\)_N530A INTERIOR \- OPEN OFFICE_FLOOR_8718_\{07103\}", type="Floor", check surface vertex order(entry)
   ** Warning ** DXFOut: Could not triangulate surface="EXTRUDED 13 \- CIB \(N&S SPACES\)_N530A INTERIOR \- OPEN OFFICE_ROOFCEILING_5373_\{07100\}", type="Roof", check surface vertex order(entry)
   ** Warning ** DXFOut: Could not triangulate surface="EXTRUDED 13 \- CIB \(N&S SPACES\)_N533 \- OPEN OFFICE_ROOFCEILING_4916_\{06543\}", type="Roof", check surface vertex order(entry)
   ** Warning ** DXFOut: Could not triangulate surface="EXTRUDED 13 \- CIB \(N&S SPACES\)_S120 _ DINING ROOM_ROOFCEILING_6751_\{00836\}", type="Roof", check surface vertex order(entry)
   ** Warning ** DXFOut: Could not triangulate surface="EXTRUDED 13 \- CIB \(N&S SPACES\)_S120 _ DINING ROOM_ROOFCEILING_6752_\{00837\}", type="Roof", check surface vertex order(entry)
   ** Warning ** DXFOut: Could not triangulate surface="EXTRUDED 13 \- CIB \(N&S SPACES\)_S201 \- CORRIDOR_ROOFCEILING_1763_\{02471\}", type="Roof", check surface vertex order(entry)
   ** Warning ** DXFOut: Could not triangulate surface="EXTRUDED 13 \- CIB \(N&S SPACES\)_S222 \- OPEN OFFICE_FLOOR_7061_\{01766\}", type="Floor", check surface vertex order(entry)
   ** Warning ** DXFOut: Could not triangulate surface="EXTRUDED 13 \- CIB \(N&S SPACES\)_S301 \- CORRIDOR_ROOFCEILING_2667_\{03684\}", type="Roof", check surface vertex order(entry)
   ** Warning ** DXFOut: Could not triangulate surface="EXTRUDED 13 \- CIB \(N&S SPACES\)_S401 \- CORRIDOR_FLOOR_8514_\{06133\}", type="Floor", check surface vertex order(entry)
   ** Warning ** DXFOut: Could not triangulate surface="EXTRUDED 13 \- CIB \(N&S SPACES\)_S401 \- CORRIDOR_ROOFCEILING_8510_\{06131\}", type="Roof", check surface vertex order(entry)
   ** Warning ** DXFOut: Could not triangulate surface="EXTRUDED 13 \- CIB \(N&S SPACES\)_S516 \- OPENOFFICE_FLOOR_8865_\{07980\}", type="Floor", check surface vertex order(entry)
   ** Warning ** DXFOut: Could not triangulate surface="EXTRUDED 13 \- CIB \(N&S SPACES\)_S516 \- OPENOFFICE_ROOFCEILING_6113_\{07977\}", type="Roof", check surface vertex order(entry)
   ** Warning ** DXFOut: Could not triangulate surface="EXTRUDED 13 \- CIB \(N&S SPACES\)_CEILING SPACE FOR N201 \- CORRIDOR_FLOOR_1001_\{01437\}", type="Floor", check surface vertex order(entry)
   ** Warning ** DXFOut: Could not triangulate surface="EXTRUDED 13 \- CIB \(N&S SPACES\)_CEILING SPACE FOR N215 \- CORRIDOR_FLOOR_759_\{01122\}", type="Floor", check surface vertex order(entry)
   ** Warning ** DXFOut: Could not triangulate surface="EXTRUDED 13 \- CIB \(N&S SPACES\)_CEILING SPACE FOR N231 \- CUSTEXP AHU_FLOOR_1035_\{01483\}", type="Floor", check surface vertex order(entry)
   ** Warning ** DXFOut: Could not triangulate surface="EXTRUDED 13 \- CIB \(N&S SPACES\)_CEILING SPACE FOR N201 \- CORRIDOR_ROOFCEILING_6931_\{01444\}", type="Roof", check surface vertex order(entry)
   ** Warning ** DXFOut: Could not triangulate surface="EXTRUDED 13 \- CIB \(N&S SPACES\)_CEILING SPACE FOR N203 \- WOMEN\'S RESTROOM_ROOFCEILING_7018_\{01654\}", type="Roof", check surface vertex order(entry)
   ** Warning ** DXFOut: Could not triangulate surface="EXTRUDED 13 \- CIB \(N&S SPACES\)_CEILING SPACE FOR S201 \- CORRIDOR_ROOFCEILING_7267_\{02504\}", type="Roof", check surface vertex order(entry)
   ** Warning ** DXFOut: Could not triangulate surface="EXTRUDED 13 \- CIB \(N&S SPACES\)_CEILING SPACE FOR N301 \- CORRIDOR_FLOOR_2332_\{03205\}", type="Floor", check surface vertex order(entry)
   ** Warning ** DXFOut: Could not triangulate surface="EXTRUDED 13 \- CIB \(N&S SPACES\)_CEILING SPACE FOR N313A INTERIOR \- OPEN OFFICE_ROOFCEILING_7562_\{03418\}", type="Roof", check surface vertex order(entry)
   ** Warning ** DXFOut: Could not triangulate surface="EXTRUDED 13 \- CIB \(N&S SPACES\)_CEILING SPACE FOR S301 \- CORRIDOR_FLOOR_2693_\{03714\}", type="Floor", check surface vertex order(entry)
   ** Warning ** DXFOut: Could not triangulate surface="EXTRUDED 13 \- CIB \(N&S SPACES\)_CEILING SPACE FOR S301 \- CORRIDOR_ROOFCEILING_7678_\{03720\}", type="Roof", check surface vertex order(entry)
   ** Warning ** DXFOut: Could not triangulate surface="EXTRUDED 13 \- CIB \(N&S SPACES\)_CEILING SPACE FOR N401 \- CORRIDOR_FLOOR_3541_\{04809\}", type="Floor", check surface vertex order(entry)
   ** Warning ** DXFOut: Could not triangulate surface="EXTRUDED 13 \- CIB \(N&S SPACES\)_CEILING SPACE FOR N434 \- OPEN OFFICE_FLOOR_3593_\{04877\}", type="Floor", check surface vertex order(entry)
   ** Warning ** DXFOut: Could not triangulate surface="EXTRUDED 13 \- CIB \(N&S SPACES\)_CEILING SPACE FOR A420 \- ATRIUM_ROOFCEILING_8231_\{05312\}", type="Roof", check surface vertex order(entry)
   ** Warning ** DXFOut: Could not triangulate surface="EXTRUDED 13 \- CIB \(N&S SPACES\)_CEILING SPACE FOR A420 \- ATRIUM_ROOFCEILING_8241_\{05316\}", type="Roof", check surface vertex order(entry)
   ** Warning ** DXFOut: Could not triangulate surface="EXTRUDED 13 \- CIB \(N&S SPACES\)_CEILING SPACE FOR N401 \- CORRIDOR_ROOFCEILING_8051_\{04821\}", type="Roof", check surface vertex order(entry)
   ** Warning ** DXFOut: Could not triangulate surface="EXTRUDED 13 \- CIB \(N&S SPACES\)_CEILING SPACE FOR N414A INTERIOR \- OPEN OFFICE_ROOFCEILING_8189_\{05242\}", type="Roof", check surface vertex order(entry)
   ** Warning ** DXFOut: Could not triangulate surface="EXTRUDED 13 \- CIB \(N&S SPACES\)_CEILING SPACE FOR S401 \- CORRIDOR_ROOFCEILING_8531_\{06178\}", type="Roof", check surface vertex order(entry)
   ** Warning ** DXFOut: Could not triangulate surface="EXTRUDED 13 \- CIB \(N&S SPACES\)_CEILING SPACE FOR S495 \- STAIR 2_ROOFCEILING_8329_\{05547\}", type="Roof", check surface vertex order(entry)
   ** Warning ** DXFOut: Could not triangulate surface="EXTRUDED 13 \- CIB \(N&S SPACES\)_CEILING SPACE FOR N501 \- CORRIDOR_FLOOR_5581_\{07338\}", type="Floor", check surface vertex order(entry)
   ** Warning ** DXFOut: Could not triangulate surface="EXTRUDED 13 \- CIB \(N&S SPACES\)_CEILING SPACE FOR N523 \- CORRIDOR AND RECEPTION_FLOOR_5487_\{07232\}", type="Floor", check surface vertex order(entry)
   ** Warning ** DXFOut: Could not triangulate surface="EXTRUDED 13 \- CIB \(N&S SPACES\)_CEILING SPACE FOR N533 \- OPEN OFFICE_FLOOR_4943_\{06578\}", type="Floor", check surface vertex order(entry)
   ** Warning ** DXFOut: Could not triangulate surface="EXTRUDED 13 \- CIB \(N&S SPACES\)_CEILING SPACE FOR N530A INTERIOR \- OPEN OFFICE_ROOFCEILING_5398_\{07129\}", type="Roof", check surface vertex order(entry)
   ** Warning ** DXFOut: Could not triangulate surface="EXTRUDED 13 \- CIB \(N&S SPACES\)_CEILING SPACE FOR N533 \- OPEN OFFICE_ROOFCEILING_4942_\{06577\}", type="Roof", check surface vertex order(entry)
   ** Warning ** DXFOut: Could not triangulate surface="EXTRUDED 13 \- CIB \(N&S SPACES\)_CEILING SPACE FOR S516 \- OPENOFFICE_ROOFCEILING_6137_\{08008\}", type="Roof", check surface vertex order(entry)
   ************* Testing Individual Branch Integrity
   ************* All Branches passed integrity testing
   ************* Testing Individual Supply Air Path Integrity
   ************* All Supply Air Paths passed integrity testing
   ************* Testing Individual Return Air Path Integrity
   ************* All Return Air Paths passed integrity testing
   ** Severe  ** Node Connection Error, Node="SYSTEM 1_ HYDRONIC FCU SYSTEM_CHW_\{11234\} SUPPLY OUTLET PIPE NODE", Inlet node did not find an appropriate matching "outlet" node.
   **   ~~~   ** If this is an outdoor air inlet node, it must be listed in an OutdoorAir:Node or OutdoorAir:NodeList object.
   **   ~~~   ** Reference Object=Pipe:Adiabatic, Name=SYSTEM 1_ HYDRONIC FCU SYSTEM_CHW_\{11234\} SUPPLY OUTLET PIPE
   ** Warning ** Node Connection Error for object PIPE:ADIABATIC=SYSTEM 1_ HYDRONIC FCU SYSTEM_CHW_\{11234\} SUPPLY OUTLET PIPE
   **   ~~~   **   Pipe Nodes not on any Branch or Parent Object
   **   ~~~   **   Inlet Node : SYSTEM 1_ HYDRONIC FCU SYSTEM_CHW_\{11234\} SUPPLY OUTLET PIPE NODE
   **   ~~~   **   Outlet Node: NODE 2
   ************* There were 2 node connection errors noted.
   ************* Beginning Simulation
   ** Warning ** CoolingTower:VariableSpeed "MAIN TOWER" - Tower range temperature is outside model boundaries at 0.18.
   **   ~~~   **  ...Valid range = 1.11 to 22.22. Occurrence info = RUNPERIOD_PALM BEACH INTL AP_\{11171\}, 07/01 05:00 - 05:15
   **   ~~~   **  ...Tower range temperature passed to the model = 0.18446
   **   ~~~   **  ...Range temperatures outside model boundaries may not adversely affect tower performance.
   **   ~~~   **  ...This is not an unexpected occurrence when simulating actual conditions.
   ************* Simulation Error Summary *************
   ** Warning ** The following Report Variables were requested but not generated -- check.rdd file
   **   ~~~   ** Either the IDF did not contain these elements, the variable name is misspelled,
   **   ~~~   ** or the requested variable is an advanced output which requires Output : Diagnostics, DisplayAdvancedReportVariables;
   ************* Key=A100 Reception_\{13822\}, VarName=ZONE THERMOSTAT COOLING SETPOINT TEMPERATURE, Frequency=TimeStep
   ************* There are 4 unused objects in input.
   ************* Use Output:Diagnostics,DisplayUnusedObjects; to see them.
   ************* There are 42 unused schedules in input.
   ************* There are 13 unused week schedules in input.
   ************* There are 59 unused day schedules in input.
   ************* Use Output:Diagnostics,DisplayUnusedSchedules; to see them.
   *************
   ************* ===== Recurring Surface Error Summary =====
   ************* The following surface error messages occurred.
   *************
   ************* Base Surface does not surround subsurface errors occurring...
   ************* Check that the GlobalGeometryRules object is expressing the proper starting corner and direction [CounterClockwise/Clockwise]
   *************
   ** Warning ** Base surface does not surround subsurface (CHKSBS), Overlap Status=No-Overlap
   **   ~~~   **   The base surround errors occurred 2 times.
   **   ~~~   ** Surface "EXTRUDED 13 \- CIB \(N&S SPACES\)_LEVEL 1\.2 SPACE_WALL_6637_\{00455\}" misses SubSurface "EXTRUDED 13 \- CIB \(N&S SPACES\)_LEVEL 1\.2 SPACE_WALL_6637_WINDOW_249_\{00456\}"
   **   ~~~   ** Surface "EXTRUDED 13 \- CIB \(N&S SPACES\)_LEVEL 1\.2 SPACE_WALL_6637_\{00455\}" misses SubSurface "EXTRUDED 13 \- CIB \(N&S SPACES\)_LEVEL 1\.2 SPACE_WALL_6637_WINDOW_250_\{00457\}"
   *************
   **   ~~~   **   The base surround errors occurred 2 times (total).
   *************
   *************
   ************* ===== Recurring Error Summary =====
   ************* The following recurring error messages occurred.
   *************
   *************  ** Severe  ** CalcClearRoof: Convection model not evaluated because bad value for distance to roof edge and set to 9.999 [W/m2-k]
   *************  **   ~~~   **   This error occurred 145962 total times;
   *************  **   ~~~   **   during Warmup 130410 times;
   *************  **   ~~~   **   during Sizing 83268 times.
   *************
   *************  ** Warning ** Calculated Relative Humidity out of range (PsyRhFnTdbWPb)
   *************  **   ~~~   **   This error occurred 365 total times;
   *************  **   ~~~   **   during Warmup 0 times;
   *************  **   ~~~   **   during Sizing 0 times.
   *************  **   ~~~   **   Max=210.487592 %  Min=210.487592 %
   *************
   *************  ** Warning ** CoolingTower:VariableSpeed "MAIN TOWER" - Tower range temperature is out of range error continues...
   *************  **   ~~~   **   This error occurred 28 total times;
   *************  **   ~~~   **   during Warmup 0 times;
   *************  **   ~~~   **   during Sizing 0 times.
   *************  **   ~~~   **   Max=0.762298  Min=0.195415
   *************
   *************
   ************* ===== Final Error Summary =====
   ************* The following error categories occurred.  Consider correcting or noting.
   ************* Node Connection Errors
   ************* ..Node connection errors are often caused by spelling mistakes in a node name field.
   ************* ..To track down the problem, search the idf file for each node name listed to see if it
   ************* ..occurs in the expected input fields.
   *************
   ************* EnergyPlus Warmup Error Summary. During Warmup: 0 Warning; 0 Severe Errors.
   ************* EnergyPlus Sizing Error Summary. During Sizing: 790 Warning; 0 Severe Errors.
   ************* EnergyPlus Completed Successfully-- 1417 Warning; 145975 Severe Errors; Elapsed Time=00hr 01min 12.30sec
