{
   "completed_at" : "20241205T011401Z",
   "completed_status" : "Success",
   "created_at" : "20241029T031943Z",
   "current_step" : 0,
   "eplusout_err" : "Program Version,EnergyPlus, Version 24.1.0-9d7789a3ac, YMD=2024.12.05 09:13,\n   ************* Beginning Zone Sizing Calculations\n   ** Warning ** GetHTSurfaceData: Surfaces with interface to Ground found but no \"Ground Temperatures\" were input.\n   **   ~~~   ** Found first in surface=TEST_OFFICE_0_SRF_4\n   **   ~~~   ** Defaults, constant throughout the year of (18.0) will be used.\n   ** Warning ** GetVRFInput: AirConditioner:VariableRefrigerantFlow=\"VRF SYSTEM\" curve values\n   **   ~~~   ** ... Cooling Capacity Ratio Modifier Function of Low Temperature Curve Name = VRF SYSTEM VRFCOOLCAPFT output is not equal to 1.0 (+ or - 10%) at rated conditions.\n   **   ~~~   ** ... Curve output at rated conditions = 1.136\n   ** Warning ** ManageSizing: For a plant sizing run, there must be at least 1 Sizing:Plant object input. SimulationControl Plant Sizing option ignored.\n   ** Warning ** Output:Meter: invalid Key Name=\"NATURALGAS:FACILITY\" - not found.\n   ** Warning ** Output:Meter: invalid Key Name=\"DISTRICTHEATINGWATER:FACILITY\" - not found.\n   ** Warning ** Output:Meter: invalid Key Name=\"DISTRICTCOOLING:FACILITY\" - not found.\n   ** Warning ** Output:Meter:MeterFileOnly: invalid Key Name=\"NATURALGAS:FACILITY\" - not found.\n   ** Warning ** Output:Meter:MeterFileOnly requested for \"Electricity:Facility\" (TimeStep), already on \"Output:Meter\". Will report to both eplusout.eso and eplusout.mtr\n   ************* Testing Individual Branch Integrity\n   ************* All Branches passed integrity testing\n   ************* Testing Individual Supply Air Path Integrity\n   ************* All Supply Air Paths passed integrity testing\n   ************* Testing Individual Return Air Path Integrity\n   ************* All Return Air Paths passed integrity testing\n   ************* No node connection errors were found.\n   ************* Beginning Simulation\n   ** Warning ** Processing Monthly Tabular Reports: Variable names not valid for this simulation\n   **   ~~~   ** ...use Output:Diagnostics,DisplayExtraWarnings; to show more details on individual variables.\n   ** Warning ** Temperature out of range [-100. to 200.] (PsyPsatFnTemp)\n   **   ~~~   **  Routine=PsyTwbFnTdbWPb, Environment=RUN PERIOD 1, at Simulation time=01/10 21:00 - 21:10\n   **   ~~~   **  Input Temperature=-127.66\n   ** Warning ** The resource referenced by LifeCycleCost:UsePriceEscalation= \"U.S. AVG  COMMERCIAL-ELECTRICITY\" has no energy cost. \n   **   ~~~   ** ... It is likely that the wrong resource is used. The resource should match the meter used in Utility:Tariff.\n   ** Warning ** The resource referenced by LifeCycleCost:UsePriceEscalation= \"U.S. AVG  COMMERCIAL-DISTILLATE OIL\" has no energy cost. \n   **   ~~~   ** ... It is likely that the wrong resource is used. The resource should match the meter used in Utility:Tariff.\n   ** Warning ** The resource referenced by LifeCycleCost:UsePriceEscalation= \"U.S. AVG  COMMERCIAL-RESIDUAL OIL\" has no energy cost. \n   **   ~~~   ** ... It is likely that the wrong resource is used. The resource should match the meter used in Utility:Tariff.\n   ** Warning ** The resource referenced by LifeCycleCost:UsePriceEscalation= \"U.S. AVG  COMMERCIAL-NATURAL GAS\" has no energy cost. \n   **   ~~~   ** ... It is likely that the wrong resource is used. The resource should match the meter used in Utility:Tariff.\n   ** Warning ** The resource referenced by LifeCycleCost:UsePriceEscalation= \"U.S. AVG  COMMERCIAL-COAL\" has no energy cost. \n   **   ~~~   ** ... It is likely that the wrong resource is used. The resource should match the meter used in Utility:Tariff.\n   ************* Simulation Error Summary *************\n   ** Warning ** The following Report Variables were requested but not generated -- check.rdd file\n   **   ~~~   ** Either the IDF did not contain these elements, the variable name is misspelled,\n   **   ~~~   ** or the requested variable is an advanced output which requires Output : Diagnostics, DisplayAdvancedReportVariables;\n   ************* Key=*, VarName=ZONE IDEAL LOADS SUPPLY AIR TOTAL COOLING ENERGY, Frequency=Hourly\n   ************* Key=*, VarName=ZONE VENTILATION FAN ELECTRICITY ENERGY, Frequency=Hourly\n   ************* Key=*, VarName=PUMP ELECTRICITY ENERGY, Frequency=Hourly\n   ************* Key=*, VarName=COOLING COIL ELECTRICITY ENERGY, Frequency=Hourly\n   ************* Key=*, VarName=CHILLER ELECTRICITY ENERGY, Frequency=Hourly\n   ************* Key=*, VarName=ZONE IDEAL LOADS SUPPLY AIR TOTAL HEATING ENERGY, Frequency=Hourly\n   ************* Key=*, VarName=BOILER NATURALGAS ENERGY, Frequency=Hourly\n   ************* Key=*, VarName=HEATING COIL TOTAL HEATING ENERGY, Frequency=Hourly\n   ************* Key=*, VarName=HEATING COIL NATURALGAS ENERGY, Frequency=Hourly\n   ************* Key=*, VarName=HEATING COIL ELECTRICITY ENERGY, Frequency=Hourly\n   ************* Key=*, VarName=HUMIDIFIER ELECTRICITY ENERGY, Frequency=Hourly\n   ************* There are 8 unused schedules in input.\n   ************* There are 8 unused week schedules in input.\n   ************* There are 16 unused day schedules in input.\n   ************* Use Output:Diagnostics,DisplayUnusedSchedules; to see them.\n   *************\n   ************* ===== Recurring Error Summary =====\n   ************* The following recurring error messages occurred.\n   *************\n   *************  ** Warning ** Temperature out of range [-100. to 200.] (PsyPsatFnTemp)\n   *************  **   ~~~   **   This error occurred 1 total times;\n   *************  **   ~~~   **   during Warmup 0 times;\n   *************  **   ~~~   **   during Sizing 0 times.\n   *************  **   ~~~   **   Max=-127.668457 C  Min=-127.668457 C\n   *************\n   ************* EnergyPlus Warmup Error Summary. During Warmup: 0 Warning; 0 Severe Errors.\n   ************* EnergyPlus Sizing Error Summary. During Sizing: 3 Warning; 0 Severe Errors.\n   ************* EnergyPlus Completed Successfully-- 16 Warning; 0 Severe Errors; Elapsed Time=00hr 00min  2.22sec\n\u0000\u0000\u0000\u0000\u0000\u0000\u0000\u0000\u0000\u0000\u0000\u0000\u0000\u0000\u0000\u0000\u0000\u0000\u0000\u0000\u0000\u0000\u0000\u0000\u0000\u0000\u0000\u0000\u0000\u0000\u0000\u0000\u0000\u0000\u0000\u0000\u0000\u0000\u0000\u0000\u0000\u0000\u0000\u0000\u0000\u0000\u0000\u0000\u0000\u0000\u0000\u0000\u0000\u0000\u0000\u0000\u0000\u0000\u0000\u0000\u0000\u0000\u0000\u0000\u0000\u0000\u0000\u0000\u0000",
   "file_paths" : 
   [
      "C:/Users/luokunyu/AppData/Local/Temp/osmodel-8ae6-09f0-7437-3d10-1733361081-0/resources/generated_files",
      "./files",
      "./weather",
      "../../files",
      "../../weather",
      "./"
   ],
   "hash" : "3BC7B932",
   "run_options" : null,
   "seed_file" : "../TestOffice_VRF.osm",
   "started_at" : "20241205T011357Z",
   "steps" : [],
   "updated_at" : "20241205T011401Z",
   "weather_file" : "CHN_Shanghai.Shanghai.583620_CSWD.epw"
}