Program Version,EnergyPlus, Version 24.2.0-94a887817b, YMD=2025.02.26 16:11,
   ** Warning ** Version: in IDF="24.1" not the same as expected="24.2"
   ** Warning ** Version: in IDF="24.1" not the same as expected="24.2"
   ************* Beginning Zone Sizing Calculations
   ** Warning ** GetHTSurfaceData: Surfaces with interface to Ground found but no "Ground Temperatures" were input.
   **   ~~~   ** Found first in surface=TEST_OFFICE_0_SRF_4
   **   ~~~   ** Defaults, constant throughout the year of (18.0) will be used.
   ** Severe  ** Current version does not support Loop pumps and branch pumps together
   **   ~~~   ** Occurs in loop CHILLED WATER LOOP
   **  Fatal  ** GetPlantInput: Previous Severe errors cause termination.
   ...Summary of Errors that led to program termination:
   ..... Reference severe error count=1
   ..... Last severe error=Current version does not support Loop pumps and branch pumps together
   ************* Warning:  Node connection errors not checked - most system input has not been read (see previous warning).
   ************* Fatal error -- final processing.  Program exited before simulations began.  See previous error messages.
   ************* EnergyPlus Warmup Error Summary. During Warmup: 0 Warning; 0 Severe Errors.
   ************* EnergyPlus Sizing Error Summary. During Sizing: 1 Warning; 1 Severe Errors.
   ************* EnergyPlus Terminated--Fatal Error Detected. 3 Warning; 1 Severe Errors; Elapsed Time=00hr 00min  0.16sec
