{
   "completed_at" : "20241129T092228Z",
   "completed_status" : "Success",
   "created_at" : "20241029T031943Z",
   "current_step" : 0,
   "eplusout_err" : "Program Version,EnergyPlus, Version 24.1.0-9d7789a3ac, YMD=2024.11.29 17:22,\n   ************* Beginning Zone Sizing Calculations\n   ** Warning ** GetHTSurfaceData: Surfaces with interface to Ground found but no \"Ground Temperatures\" were input.\n   **   ~~~   ** Found first in surface=TEST_OFFICE_0_SRF_4\n   **   ~~~   ** Defaults, constant throughout the year of (18.0) will be used.\n   ************* Beginning System Sizing Calculations\n   ************* Beginning Plant Sizing Calculations\n   ** Warning ** GetOAControllerInputs: Controller:MechanicalVentilation=\"CONTROLLER MECHANICAL VENTILATION 1\"\n   **   ~~~   ** Cannot locate a matching DesignSpecification:ZoneAirDistribution object for Zone=\"TEST_OFFICE_0\".\n   **   ~~~   ** Using default zone air distribution effectiveness of 1.0 for heating and cooling.\n   ** Warning ** The design coil load is zero for Coil:Heating:Water COIL HEATING WATER 1\n   **   ~~~   ** The autosize value for maximum water flow rate is zero\n   **   ~~~   ** To change this, input a value for UA, change the heating design day, or raise the\n   **   ~~~   **   system heating design supply air temperature. Also check to make sure the Preheat\n   **   ~~~   **   Design Temperature is not the same as the Central Heating Design Supply Air Temperature. \n   ** Warning ** InitController: Controller:WaterCoil=\"CONTROLLER WATER COIL 1\", Maximum Actuated Flow is zero.\n   ** Warning ** Missing temperature setpoint for LeavingSetpointModulated mode chiller named CHILLER ELECTRIC EIR 1\n   **   ~~~   **   A temperature setpoint is needed at the outlet node of a chiller in variable flow mode, use a SetpointManager\n   **   ~~~   **   The overall loop setpoint will be assumed for chiller. The simulation continues ... \n   ** Warning ** SizePlantLoop: Calculated Plant Sizing Design Volume Flow Rate=[0.00] is too small. Set to 0.0\n   **   ~~~   ** ..occurs for PlantLoop=HOT WATER LOOP\n   ** Warning ** SizePump: Calculated Pump Nominal Volume Flow Rate=[0.00] is too small. Set to 0.0\n   **   ~~~   ** ..occurs for Pump=PUMP VARIABLE SPEED 1\n   ** Warning ** Check input. Pump nominal power or motor efficiency is set to 0, for pump=PUMP VARIABLE SPEED 1\n   ** Warning ** Check input. Pump nominal flow rate is set or calculated = 0, for pump=PUMP VARIABLE SPEED 1\n   ** Warning ** Output:Meter: invalid Key Name=\"DISTRICTHEATINGWATER:FACILITY\" - not found.\n   ** Warning ** Output:Meter: invalid Key Name=\"DISTRICTCOOLING:FACILITY\" - not found.\n   ** Warning ** Output:Meter:MeterFileOnly requested for \"Electricity:Facility\" (TimeStep), already on \"Output:Meter\". Will report to both eplusout.eso and eplusout.mtr\n   ************* Testing Individual Branch Integrity\n   ************* All Branches passed integrity testing\n   ************* Testing Individual Supply Air Path Integrity\n   ************* All Supply Air Paths passed integrity testing\n   ************* Testing Individual Return Air Path Integrity\n   ************* All Return Air Paths passed integrity testing\n   ************* No node connection errors were found.\n   ************* Beginning Simulation\n   ** Warning ** Processing Monthly Tabular Reports: Variable names not valid for this simulation\n   **   ~~~   ** ...use Output:Diagnostics,DisplayExtraWarnings; to show more details on individual variables.\n   ** Warning ** SimHVAC: Maximum iterations (20) exceeded for all HVAC loops, at RUN PERIOD 1, 01/01 15:00 - 15:10\n   **   ~~~   ** The solution for one or more of the Air Loop HVAC systems did not appear to converge\n   **   ~~~   ** ...use Output:Diagnostics,DisplayExtraWarnings; to show more details on each max iteration exceeded.\n   ** Warning ** SimHVAC: Maximum iterations (20) exceeded for all HVAC loops, at RUN PERIOD 1, 01/03 16:10 - 16:20\n   **   ~~~   ** The solution for one or more of the Air Loop HVAC systems did not appear to converge\n   ** Warning ** SimHVAC: Maximum iterations (20) exceeded for all HVAC loops, at RUN PERIOD 1, 01/03 16:20 - 16:30\n   **   ~~~   ** The solution for one or more of the Air Loop HVAC systems did not appear to converge\n   ** Warning ** SimHVAC: Maximum iterations (20) exceeded for all HVAC loops, at RUN PERIOD 1, 01/10 14:30 - 14:40\n   **   ~~~   ** The solution for one or more of the Air Loop HVAC systems did not appear to converge\n   ** Warning ** SimHVAC: Maximum iterations (20) exceeded for all HVAC loops, at RUN PERIOD 1, 01/10 16:00 - 16:10\n   **   ~~~   ** The solution for one or more of the Air Loop HVAC systems did not appear to converge\n   ** Warning ** Temperature out of range [-100. to 200.] (PsyPsatFnTemp)\n   **   ~~~   **  Routine=PsyTwbFnTdbWPb, Environment=RUN PERIOD 1, at Simulation time=01/10 21:00 - 21:10\n   **   ~~~   **  Input Temperature=-127.66\n   ** Warning ** SimHVAC: Maximum iterations (20) exceeded for all HVAC loops, at RUN PERIOD 1, 01/11 16:40 - 16:50\n   **   ~~~   ** The solution for one or more of the Air Loop HVAC systems did not appear to converge\n   ** Warning ** SimHVAC: Maximum iterations (20) exceeded for all HVAC loops, at RUN PERIOD 1, 01/11 16:50 - 17:00\n   **   ~~~   ** The solution for one or more of the Air Loop HVAC systems did not appear to converge\n   ** Warning ** SimHVAC: Maximum iterations (20) exceeded for all HVAC loops, at RUN PERIOD 1, 01/20 16:20 - 16:30\n   **   ~~~   ** The solution for one or more of the Air Loop HVAC systems did not appear to converge\n   ** Warning ** SimHVAC: Maximum iterations (20) exceeded for all HVAC loops, at RUN PERIOD 1, 01/20 16:30 - 16:40\n   **   ~~~   ** The solution for one or more of the Air Loop HVAC systems did not appear to converge\n   ** Warning ** SimHVAC: Maximum iterations (20) exceeded for all HVAC loops, at RUN PERIOD 1, 01/24 16:10 - 16:20\n   **   ~~~   ** The solution for one or more of the Air Loop HVAC systems did not appear to converge\n   ** Warning ** SimHVAC: Maximum iterations (20) exceeded for all HVAC loops, at RUN PERIOD 1, 01/26 15:40 - 15:50\n   **   ~~~   ** The solution for one or more of the Air Loop HVAC systems did not appear to converge\n   ** Warning ** SimHVAC: Maximum iterations (20) exceeded for all HVAC loops, at RUN PERIOD 1, 01/26 15:50 - 16:00\n   **   ~~~   ** The solution for one or more of the Air Loop HVAC systems did not appear to converge\n   ** Warning ** SimHVAC: Maximum iterations (20) exceeded for all HVAC loops, at RUN PERIOD 1, 01/27 13:20 - 13:25\n   **   ~~~   ** The solution for one or more of the Air Loop HVAC systems did not appear to converge\n   ** Warning ** SimHVAC: Maximum iterations (20) exceeded for all HVAC loops, at RUN PERIOD 1, 01/27 17:00 - 17:10\n   **   ~~~   ** The solution for one or more of the Air Loop HVAC systems did not appear to converge\n   ** Warning ** The resource referenced by LifeCycleCost:UsePriceEscalation= \"U.S. AVG  COMMERCIAL-ELECTRICITY\" has no energy cost. \n   **   ~~~   ** ... It is likely that the wrong resource is used. The resource should match the meter used in Utility:Tariff.\n   ** Warning ** The resource referenced by LifeCycleCost:UsePriceEscalation= \"U.S. AVG  COMMERCIAL-DISTILLATE OIL\" has no energy cost. \n   **   ~~~   ** ... It is likely that the wrong resource is used. The resource should match the meter used in Utility:Tariff.\n   ** Warning ** The resource referenced by LifeCycleCost:UsePriceEscalation= \"U.S. AVG  COMMERCIAL-RESIDUAL OIL\" has no energy cost. \n   **   ~~~   ** ... It is likely that the wrong resource is used. The resource should match the meter used in Utility:Tariff.\n   ** Warning ** The resource referenced by LifeCycleCost:UsePriceEscalation= \"U.S. AVG  COMMERCIAL-NATURAL GAS\" has no energy cost. \n   **   ~~~   ** ... It is likely that the wrong resource is used. The resource should match the meter used in Utility:Tariff.\n   ** Warning ** The resource referenced by LifeCycleCost:UsePriceEscalation= \"U.S. AVG  COMMERCIAL-COAL\" has no energy cost. \n   **   ~~~   ** ... It is likely that the wrong resource is used. The resource should match the meter used in Utility:Tariff.\n   ************* Simulation Error Summary *************\n   ** Warning ** The following Report Variables were requested but not generated -- check.rdd file\n   **   ~~~   ** Either the IDF did not contain these elements, the variable name is misspelled,\n   **   ~~~   ** or the requested variable is an advanced output which requires Output : Diagnostics, DisplayAdvancedReportVariables;\n   ************* Key=*, VarName=ZONE IDEAL LOADS SUPPLY AIR TOTAL COOLING ENERGY, Frequency=Hourly\n   ************* Key=*, VarName=ZONE VENTILATION FAN ELECTRICITY ENERGY, Frequency=Hourly\n   ************* Key=*, VarName=ZONE VRF AIR TERMINAL COOLING ELECTRICITY ENERGY, Frequency=Hourly\n   ************* Key=*, VarName=ZONE VRF AIR TERMINAL HEATING ELECTRICITY ENERGY, Frequency=Hourly\n   ************* Key=*, VarName=VRF HEAT PUMP COOLING ELECTRICITY ENERGY, Frequency=Hourly\n   ************* Key=*, VarName=VRF HEAT PUMP HEATING ELECTRICITY ENERGY, Frequency=Hourly\n   ************* Key=*, VarName=COOLING COIL ELECTRICITY ENERGY, Frequency=Hourly\n   ************* Key=*, VarName=ZONE IDEAL LOADS SUPPLY AIR TOTAL HEATING ENERGY, Frequency=Hourly\n   ************* Key=*, VarName=HEATING COIL TOTAL HEATING ENERGY, Frequency=Hourly\n   ************* Key=*, VarName=HEATING COIL NATURALGAS ENERGY, Frequency=Hourly\n   ************* Key=*, VarName=HUMIDIFIER ELECTRICITY ENERGY, Frequency=Hourly\n   ************* There are 2 unused schedules in input.\n   ************* There are 2 unused week schedules in input.\n   ************* There are 2 unused day schedules in input.\n   ************* Use Output:Diagnostics,DisplayUnusedSchedules; to see them.\n   *************\n   ************* ===== Recurring Error Summary =====\n   ************* The following recurring error messages occurred.\n   *************\n   *************  ** Warning ** Temperature out of range [-100. to 200.] (PsyPsatFnTemp)\n   *************  **   ~~~   **   This error occurred 1 total times;\n   *************  **   ~~~   **   during Warmup 0 times;\n   *************  **   ~~~   **   during Sizing 0 times.\n   *************  **   ~~~   **   Max=-127.668457 C  Min=-127.668457 C\n   *************\n   *************  ** Warning ** SimHVAC: Exceeding Maximum iterations for all HVAC loops, during RUN PERIOD 1 continues\n   *************  **   ~~~   **   This error occurred 46 total times;\n   *************  **   ~~~   **   during Warmup 0 times;\n   *************  **   ~~~   **   during Sizing 0 times.\n   *************\n   ************* EnergyPlus Warmup Error Summary. During Warmup: 0 Warning; 0 Severe Errors.\n   ************* EnergyPlus Sizing Error Summary. During Sizing: 1 Warning; 0 Severe Errors.\n   ************* EnergyPlus Completed Successfully-- 80 Warning; 0 Severe Errors; Elapsed Time=00hr 00min  3.92sec\n\u0000\u0000\u0000\u0000\u0000\u0000\u0000\u0000\u0000\u0000\u0000\u0000\u0000\u0000\u0000\u0000\u0000\u0000\u0000\u0000\u0000\u0000\u0000\u0000\u0000\u0000\u0000\u0000\u0000\u0000\u0000\u0000\u0000\u0000\u0000\u0000\u0000\u0000\u0000\u0000\u0000\u0000\u0000\u0000\u0000\u0000\u0000\u0000\u0000\u0000\u0000\u0000\u0000\u0000\u0000\u0000\u0000\u0000\u0000\u0000\u0000\u0000\u0000\u0000\u0000\u0000\u0000\u0000\u0000\u0000\u0000\u0000\u0000\u0000\u0000\u0000\u0000\u0000\u0000\u0000\u0000\u0000\u0000\u0000\u0000\u0000\u0000\u0000\u0000\u0000\u0000\u0000\u0000\u0000\u0000\u0000\u0000\u0000\u0000\u0000\u0000\u0000\u0000\u0000\u0000\u0000\u0000\u0000\u0000\u0000\u0000\u0000\u0000\u0000\u0000\u0000\u0000",
   "file_paths" : 
   [
      "C:/Users/luokunyu/AppData/Local/Temp/osmodel-0e04-1b92-d43b-6cef-1732865167-0/resources/generated_files",
      "./files",
      "./weather",
      "../../files",
      "../../weather",
      "./"
   ],
   "hash" : "033020B8",
   "run_options" : null,
   "seed_file" : "../TestOffice_VAV.osm",
   "started_at" : "20241129T092222Z",
   "steps" : [],
   "updated_at" : "20241129T092228Z",
   "weather_file" : "CHN_Shanghai.Shanghai.583620_CSWD.epw"
}